
---------- Begin Simulation Statistics ----------
final_tick                               110141774000                       # Number of ticks from beginning of simulation (restored from checkpoints and never reset)
host_inst_rate                                 421749                       # Simulator instruction rate (inst/s)
host_mem_usage                                 836140                       # Number of bytes of host memory used
host_op_rate                                   763919                       # Simulator op (including micro ops) rate (op/s)
host_seconds                                   237.11                       # Real time elapsed on the host
host_tick_rate                              464518478                       # Simulator tick rate (ticks/s)
sim_freq                                 1000000000000                       # Frequency of simulated ticks
sim_insts                                   100000001                       # Number of instructions simulated
sim_ops                                     181132362                       # Number of ops (including micro ops) simulated
sim_seconds                                  0.110142                       # Number of seconds simulated
sim_ticks                                110141774000                       # Number of ticks simulated
system.clk_domain.clock                          1000                       # Clock period in ticks
system.cpu.Branches                          13383462                       # Number of branches fetched
system.cpu.apic_clk_domain.clock                 8000                       # Clock period in ticks
system.cpu.committedInsts                   100000001                       # Number of instructions committed
system.cpu.committedOps                     181132362                       # Number of ops (including micro ops) committed
system.cpu.dcache.ReadReq_accesses::.cpu.data     14667118                       # number of ReadReq accesses(hits+misses)
system.cpu.dcache.ReadReq_accesses::total     14667118                       # number of ReadReq accesses(hits+misses)
system.cpu.dcache.ReadReq_hits::.cpu.data     14603824                       # number of ReadReq hits
system.cpu.dcache.ReadReq_hits::total        14603824                       # number of ReadReq hits
system.cpu.dcache.ReadReq_miss_rate::.cpu.data     0.004315                       # miss rate for ReadReq accesses
system.cpu.dcache.ReadReq_miss_rate::total     0.004315                       # miss rate for ReadReq accesses
system.cpu.dcache.ReadReq_misses::.cpu.data        63294                       # number of ReadReq misses
system.cpu.dcache.ReadReq_misses::total         63294                       # number of ReadReq misses
system.cpu.dcache.WriteReq_accesses::.cpu.data     70479062                       # number of WriteReq accesses(hits+misses)
system.cpu.dcache.WriteReq_accesses::total     70479062                       # number of WriteReq accesses(hits+misses)
system.cpu.dcache.WriteReq_hits::.cpu.data     37279096                       # number of WriteReq hits
system.cpu.dcache.WriteReq_hits::total       37279096                       # number of WriteReq hits
system.cpu.dcache.WriteReq_miss_rate::.cpu.data     0.471061                       # miss rate for WriteReq accesses
system.cpu.dcache.WriteReq_miss_rate::total     0.471061                       # miss rate for WriteReq accesses
system.cpu.dcache.WriteReq_misses::.cpu.data     33199966                       # number of WriteReq misses
system.cpu.dcache.WriteReq_misses::total     33199966                       # number of WriteReq misses
system.cpu.dcache.avg_blocked_cycles::no_mshrs          nan                       # average number of cycles each access was blocked
system.cpu.dcache.avg_blocked_cycles::no_targets          nan                       # average number of cycles each access was blocked
system.cpu.dcache.blocked::no_mshrs                 0                       # number of cycles access was blocked
system.cpu.dcache.blocked::no_targets               0                       # number of cycles access was blocked
system.cpu.dcache.blocked_cycles::no_mshrs            0                       # number of cycles access was blocked
system.cpu.dcache.blocked_cycles::no_targets            0                       # number of cycles access was blocked
system.cpu.dcache.demand_accesses::.cpu.data     85146180                       # number of demand (read+write) accesses
system.cpu.dcache.demand_accesses::total     85146180                       # number of demand (read+write) accesses
system.cpu.dcache.demand_hits::.cpu.data     51882920                       # number of demand (read+write) hits
system.cpu.dcache.demand_hits::total         51882920                       # number of demand (read+write) hits
system.cpu.dcache.demand_miss_rate::.cpu.data     0.390661                       # miss rate for demand accesses
system.cpu.dcache.demand_miss_rate::total     0.390661                       # miss rate for demand accesses
system.cpu.dcache.demand_misses::.cpu.data     33263260                       # number of demand (read+write) misses
system.cpu.dcache.demand_misses::total       33263260                       # number of demand (read+write) misses
system.cpu.dcache.overall_accesses::.cpu.data     85146180                       # number of overall (read+write) accesses
system.cpu.dcache.overall_accesses::total     85146180                       # number of overall (read+write) accesses
system.cpu.dcache.overall_hits::.cpu.data     51882920                       # number of overall hits
system.cpu.dcache.overall_hits::total        51882920                       # number of overall hits
system.cpu.dcache.overall_miss_rate::.cpu.data     0.390661                       # miss rate for overall accesses
system.cpu.dcache.overall_miss_rate::total     0.390661                       # miss rate for overall accesses
system.cpu.dcache.overall_misses::.cpu.data     33263260                       # number of overall misses
system.cpu.dcache.overall_misses::total      33263260                       # number of overall misses
system.cpu.dcache.pwrStateResidencyTicks::UNDEFINED 110141774000                       # Cumulative time (in ticks) in various power states
system.cpu.dcache.replacements               33261212                       # number of replacements
system.cpu.dcache.tags.age_task_id_blocks_1024::0           40                       # Occupied blocks per task id
system.cpu.dcache.tags.age_task_id_blocks_1024::1           67                       # Occupied blocks per task id
system.cpu.dcache.tags.age_task_id_blocks_1024::2          293                       # Occupied blocks per task id
system.cpu.dcache.tags.age_task_id_blocks_1024::3         1123                       # Occupied blocks per task id
system.cpu.dcache.tags.age_task_id_blocks_1024::4          525                       # Occupied blocks per task id
system.cpu.dcache.tags.avg_refs              2.559767                       # Average number of references to valid blocks.
system.cpu.dcache.tags.data_accesses        118409440                       # Number of data accesses
system.cpu.dcache.tags.occ_blocks::.cpu.data  2046.155404                       # Average occupied blocks per requestor
system.cpu.dcache.tags.occ_percent::.cpu.data     0.999099                       # Average percentage of cache occupancy
system.cpu.dcache.tags.occ_percent::total     0.999099                       # Average percentage of cache occupancy
system.cpu.dcache.tags.occ_task_id_blocks::1024         2048                       # Occupied blocks per task id
system.cpu.dcache.tags.occ_task_id_percent::1024            1                       # Percentage of cache occupancy per task id
system.cpu.dcache.tags.pwrStateResidencyTicks::UNDEFINED 110141774000                       # Cumulative time (in ticks) in various power states
system.cpu.dcache.tags.sampled_refs          33263260                       # Sample count of references to valid blocks.
system.cpu.dcache.tags.tag_accesses         118409440                       # Number of tag accesses
system.cpu.dcache.tags.tagsinuse          2046.155404                       # Cycle average of tags in use
system.cpu.dcache.tags.total_refs            85146180                       # Total number of references to valid blocks.
system.cpu.dcache.tags.warmup_cycle              1000                       # Cycle when the warmup percentage was hit.
system.cpu.dcache.writebacks::.writebacks     33227591                       # number of writebacks
system.cpu.dcache.writebacks::total          33227591                       # number of writebacks
system.cpu.dtb.pwrStateResidencyTicks::UNDEFINED 110141774000                       # Cumulative time (in ticks) in various power states
system.cpu.dtb.rdAccesses                    14667118                       # TLB accesses on read requests
system.cpu.dtb.rdMisses                         13023                       # TLB misses on read requests
system.cpu.dtb.walker.pwrStateResidencyTicks::UNDEFINED 110141774000                       # Cumulative time (in ticks) in various power states
system.cpu.dtb.wrAccesses                    70479062                       # TLB accesses on write requests
system.cpu.dtb.wrMisses                        130919                       # TLB misses on write requests
system.cpu.dtb_walker_cache.avg_blocked_cycles::no_mshrs          nan                       # average number of cycles each access was blocked
system.cpu.dtb_walker_cache.avg_blocked_cycles::no_targets          nan                       # average number of cycles each access was blocked
system.cpu.dtb_walker_cache.blocked::no_mshrs            0                       # number of cycles access was blocked
system.cpu.dtb_walker_cache.blocked::no_targets            0                       # number of cycles access was blocked
system.cpu.dtb_walker_cache.blocked_cycles::no_mshrs            0                       # number of cycles access was blocked
system.cpu.dtb_walker_cache.blocked_cycles::no_targets            0                       # number of cycles access was blocked
system.cpu.dtb_walker_cache.pwrStateResidencyTicks::UNDEFINED 110141774000                       # Cumulative time (in ticks) in various power states
system.cpu.dtb_walker_cache.replacements            0                       # number of replacements
system.cpu.dtb_walker_cache.tags.avg_refs          nan                       # Average number of references to valid blocks.
system.cpu.dtb_walker_cache.tags.data_accesses            0                       # Number of data accesses
system.cpu.dtb_walker_cache.tags.pwrStateResidencyTicks::UNDEFINED 110141774000                       # Cumulative time (in ticks) in various power states
system.cpu.dtb_walker_cache.tags.sampled_refs            0                       # Sample count of references to valid blocks.
system.cpu.dtb_walker_cache.tags.tag_accesses            0                       # Number of tag accesses
system.cpu.dtb_walker_cache.tags.tagsinuse            0                       # Cycle average of tags in use
system.cpu.dtb_walker_cache.tags.total_refs            0                       # Total number of references to valid blocks.
system.cpu.dtb_walker_cache.tags.warmup_cycle            0                       # Cycle when the warmup percentage was hit.
system.cpu.icache.ReadReq_accesses::.cpu.inst    139151228                       # number of ReadReq accesses(hits+misses)
system.cpu.icache.ReadReq_accesses::total    139151228                       # number of ReadReq accesses(hits+misses)
system.cpu.icache.ReadReq_hits::.cpu.inst    137858212                       # number of ReadReq hits
system.cpu.icache.ReadReq_hits::total       137858212                       # number of ReadReq hits
system.cpu.icache.ReadReq_miss_rate::.cpu.inst     0.009292                       # miss rate for ReadReq accesses
system.cpu.icache.ReadReq_miss_rate::total     0.009292                       # miss rate for ReadReq accesses
system.cpu.icache.ReadReq_misses::.cpu.inst      1293016                       # number of ReadReq misses
system.cpu.icache.ReadReq_misses::total       1293016                       # number of ReadReq misses
system.cpu.icache.avg_blocked_cycles::no_mshrs          nan                       # average number of cycles each access was blocked
system.cpu.icache.avg_blocked_cycles::no_targets          nan                       # average number of cycles each access was blocked
system.cpu.icache.blocked::no_mshrs                 0                       # number of cycles access was blocked
system.cpu.icache.blocked::no_targets               0                       # number of cycles access was blocked
system.cpu.icache.blocked_cycles::no_mshrs            0                       # number of cycles access was blocked
system.cpu.icache.blocked_cycles::no_targets            0                       # number of cycles access was blocked
system.cpu.icache.demand_accesses::.cpu.inst    139151228                       # number of demand (read+write) accesses
system.cpu.icache.demand_accesses::total    139151228                       # number of demand (read+write) accesses
system.cpu.icache.demand_hits::.cpu.inst    137858212                       # number of demand (read+write) hits
system.cpu.icache.demand_hits::total        137858212                       # number of demand (read+write) hits
system.cpu.icache.demand_miss_rate::.cpu.inst     0.009292                       # miss rate for demand accesses
system.cpu.icache.demand_miss_rate::total     0.009292                       # miss rate for demand accesses
system.cpu.icache.demand_misses::.cpu.inst      1293016                       # number of demand (read+write) misses
system.cpu.icache.demand_misses::total        1293016                       # number of demand (read+write) misses
system.cpu.icache.overall_accesses::.cpu.inst    139151228                       # number of overall (read+write) accesses
system.cpu.icache.overall_accesses::total    139151228                       # number of overall (read+write) accesses
system.cpu.icache.overall_hits::.cpu.inst    137858212                       # number of overall hits
system.cpu.icache.overall_hits::total       137858212                       # number of overall hits
system.cpu.icache.overall_miss_rate::.cpu.inst     0.009292                       # miss rate for overall accesses
system.cpu.icache.overall_miss_rate::total     0.009292                       # miss rate for overall accesses
system.cpu.icache.overall_misses::.cpu.inst      1293016                       # number of overall misses
system.cpu.icache.overall_misses::total       1293016                       # number of overall misses
system.cpu.icache.pwrStateResidencyTicks::UNDEFINED 110141774000                       # Cumulative time (in ticks) in various power states
system.cpu.icache.replacements                1291992                       # number of replacements
system.cpu.icache.tags.age_task_id_blocks_1024::0          428                       # Occupied blocks per task id
system.cpu.icache.tags.age_task_id_blocks_1024::1          151                       # Occupied blocks per task id
system.cpu.icache.tags.age_task_id_blocks_1024::2          135                       # Occupied blocks per task id
system.cpu.icache.tags.age_task_id_blocks_1024::3          233                       # Occupied blocks per task id
system.cpu.icache.tags.age_task_id_blocks_1024::4           77                       # Occupied blocks per task id
system.cpu.icache.tags.avg_refs            107.617561                       # Average number of references to valid blocks.
system.cpu.icache.tags.data_accesses        140444244                       # Number of data accesses
system.cpu.icache.tags.occ_blocks::.cpu.inst   905.687371                       # Average occupied blocks per requestor
system.cpu.icache.tags.occ_percent::.cpu.inst     0.884460                       # Average percentage of cache occupancy
system.cpu.icache.tags.occ_percent::total     0.884460                       # Average percentage of cache occupancy
system.cpu.icache.tags.occ_task_id_blocks::1024         1024                       # Occupied blocks per task id
system.cpu.icache.tags.occ_task_id_percent::1024            1                       # Percentage of cache occupancy per task id
system.cpu.icache.tags.pwrStateResidencyTicks::UNDEFINED 110141774000                       # Cumulative time (in ticks) in various power states
system.cpu.icache.tags.sampled_refs           1293016                       # Sample count of references to valid blocks.
system.cpu.icache.tags.tag_accesses         140444244                       # Number of tag accesses
system.cpu.icache.tags.tagsinuse           905.687371                       # Cycle average of tags in use
system.cpu.icache.tags.total_refs           139151228                       # Total number of references to valid blocks.
system.cpu.icache.tags.warmup_cycle                 0                       # Cycle when the warmup percentage was hit.
system.cpu.icache.writebacks::.writebacks      1291992                       # number of writebacks
system.cpu.icache.writebacks::total           1291992                       # number of writebacks
system.cpu.idle_fraction                            0                       # Percentage of idle cycles
system.cpu.interrupts.pwrStateResidencyTicks::UNDEFINED 110141774000                       # Cumulative time (in ticks) in various power states
system.cpu.itb.pwrStateResidencyTicks::UNDEFINED 110141774000                       # Cumulative time (in ticks) in various power states
system.cpu.itb.rdAccesses                           0                       # TLB accesses on read requests
system.cpu.itb.rdMisses                             0                       # TLB misses on read requests
system.cpu.itb.walker.pwrStateResidencyTicks::UNDEFINED 110141774000                       # Cumulative time (in ticks) in various power states
system.cpu.itb.wrAccesses                   139151228                       # TLB accesses on write requests
system.cpu.itb.wrMisses                            75                       # TLB misses on write requests
system.cpu.itb_walker_cache.avg_blocked_cycles::no_mshrs          nan                       # average number of cycles each access was blocked
system.cpu.itb_walker_cache.avg_blocked_cycles::no_targets          nan                       # average number of cycles each access was blocked
system.cpu.itb_walker_cache.blocked::no_mshrs            0                       # number of cycles access was blocked
system.cpu.itb_walker_cache.blocked::no_targets            0                       # number of cycles access was blocked
system.cpu.itb_walker_cache.blocked_cycles::no_mshrs            0                       # number of cycles access was blocked
system.cpu.itb_walker_cache.blocked_cycles::no_targets            0                       # number of cycles access was blocked
system.cpu.itb_walker_cache.pwrStateResidencyTicks::UNDEFINED 110141774000                       # Cumulative time (in ticks) in various power states
system.cpu.itb_walker_cache.replacements            0                       # number of replacements
system.cpu.itb_walker_cache.tags.avg_refs          nan                       # Average number of references to valid blocks.
system.cpu.itb_walker_cache.tags.data_accesses            0                       # Number of data accesses
system.cpu.itb_walker_cache.tags.pwrStateResidencyTicks::UNDEFINED 110141774000                       # Cumulative time (in ticks) in various power states
system.cpu.itb_walker_cache.tags.sampled_refs            0                       # Sample count of references to valid blocks.
system.cpu.itb_walker_cache.tags.tag_accesses            0                       # Number of tag accesses
system.cpu.itb_walker_cache.tags.tagsinuse            0                       # Cycle average of tags in use
system.cpu.itb_walker_cache.tags.total_refs            0                       # Total number of references to valid blocks.
system.cpu.itb_walker_cache.tags.warmup_cycle            0                       # Cycle when the warmup percentage was hit.
system.cpu.not_idle_fraction                        1                       # Percentage of non-idle cycles
system.cpu.numCycles                        220283589                       # number of cpu cycles simulated
system.cpu.numWorkItemsCompleted                    0                       # number of work items this cpu completed
system.cpu.numWorkItemsStarted                      0                       # number of work items this cpu started
system.cpu.num_busy_cycles                  220283589                       # Number of busy cycles
system.cpu.num_cc_register_reads             66390453                       # number of times the CC registers were read
system.cpu.num_cc_register_writes            58331496                       # number of times the CC registers were written
system.cpu.num_conditional_control_insts     12357188                       # number of instructions that are conditional controls
system.cpu.num_fp_alu_accesses               66072741                       # Number of float alu accesses
system.cpu.num_fp_insts                      66072741                       # number of float instructions
system.cpu.num_fp_register_reads             66100637                       # number of times the floating registers were read
system.cpu.num_fp_register_writes               34696                       # number of times the floating registers were written
system.cpu.num_func_calls                      481504                       # number of times a function call or return occured
system.cpu.num_idle_cycles                          0                       # Number of idle cycles
system.cpu.num_int_alu_accesses             180944857                       # Number of integer alu accesses
system.cpu.num_int_insts                    180944857                       # number of integer instructions
system.cpu.num_int_register_reads           393183356                       # number of times the integer registers were read
system.cpu.num_int_register_writes           97346381                       # number of times the integer registers were written
system.cpu.num_load_insts                    14666423                       # Number of load instructions
system.cpu.num_mem_refs                      85145460                       # number of memory refs
system.cpu.num_store_insts                   70479037                       # Number of store instructions
system.cpu.num_vec_alu_accesses                     0                       # Number of vector alu accesses
system.cpu.num_vec_insts                            0                       # number of vector instructions
system.cpu.num_vec_register_reads                   0                       # number of times the vector registers were read
system.cpu.num_vec_register_writes                  0                       # number of times the vector registers were written
system.cpu.op_class::No_OpClass                 16789      0.01%      0.01% # Class of executed instruction
system.cpu.op_class::IntAlu                  95765984     52.87%     52.88% # Class of executed instruction
system.cpu.op_class::IntMult                    94292      0.05%     52.93% # Class of executed instruction
system.cpu.op_class::IntDiv                     79937      0.04%     52.98% # Class of executed instruction
system.cpu.op_class::FloatAdd                    2214      0.00%     52.98% # Class of executed instruction
system.cpu.op_class::FloatCmp                       0      0.00%     52.98% # Class of executed instruction
system.cpu.op_class::FloatCvt                       0      0.00%     52.98% # Class of executed instruction
system.cpu.op_class::FloatMult                      0      0.00%     52.98% # Class of executed instruction
system.cpu.op_class::FloatMultAcc                   0      0.00%     52.98% # Class of executed instruction
system.cpu.op_class::FloatDiv                       0      0.00%     52.98% # Class of executed instruction
system.cpu.op_class::FloatMisc                      0      0.00%     52.98% # Class of executed instruction
system.cpu.op_class::FloatSqrt                      0      0.00%     52.98% # Class of executed instruction
system.cpu.op_class::SimdAdd                        0      0.00%     52.98% # Class of executed instruction
system.cpu.op_class::SimdAddAcc                     0      0.00%     52.98% # Class of executed instruction
system.cpu.op_class::SimdAlu                     4490      0.00%     52.98% # Class of executed instruction
system.cpu.op_class::SimdCmp                       12      0.00%     52.98% # Class of executed instruction
system.cpu.op_class::SimdCvt                     5116      0.00%     52.98% # Class of executed instruction
system.cpu.op_class::SimdMisc                   18029      0.01%     52.99% # Class of executed instruction
system.cpu.op_class::SimdMult                       0      0.00%     52.99% # Class of executed instruction
system.cpu.op_class::SimdMultAcc                    0      0.00%     52.99% # Class of executed instruction
system.cpu.op_class::SimdShift                      0      0.00%     52.99% # Class of executed instruction
system.cpu.op_class::SimdShiftAcc                   0      0.00%     52.99% # Class of executed instruction
system.cpu.op_class::SimdDiv                        0      0.00%     52.99% # Class of executed instruction
system.cpu.op_class::SimdSqrt                       0      0.00%     52.99% # Class of executed instruction
system.cpu.op_class::SimdFloatAdd                   0      0.00%     52.99% # Class of executed instruction
system.cpu.op_class::SimdFloatAlu                   0      0.00%     52.99% # Class of executed instruction
system.cpu.op_class::SimdFloatCmp                   0      0.00%     52.99% # Class of executed instruction
system.cpu.op_class::SimdFloatCvt                  29      0.00%     52.99% # Class of executed instruction
system.cpu.op_class::SimdFloatDiv                   5      0.00%     52.99% # Class of executed instruction
system.cpu.op_class::SimdFloatMisc                  0      0.00%     52.99% # Class of executed instruction
system.cpu.op_class::SimdFloatMult                  5      0.00%     52.99% # Class of executed instruction
system.cpu.op_class::SimdFloatMultAcc               0      0.00%     52.99% # Class of executed instruction
system.cpu.op_class::SimdFloatSqrt                  0      0.00%     52.99% # Class of executed instruction
system.cpu.op_class::SimdReduceAdd                  0      0.00%     52.99% # Class of executed instruction
system.cpu.op_class::SimdReduceAlu                  0      0.00%     52.99% # Class of executed instruction
system.cpu.op_class::SimdReduceCmp                  0      0.00%     52.99% # Class of executed instruction
system.cpu.op_class::SimdFloatReduceAdd             0      0.00%     52.99% # Class of executed instruction
system.cpu.op_class::SimdFloatReduceCmp             0      0.00%     52.99% # Class of executed instruction
system.cpu.op_class::SimdAes                        0      0.00%     52.99% # Class of executed instruction
system.cpu.op_class::SimdAesMix                     0      0.00%     52.99% # Class of executed instruction
system.cpu.op_class::SimdSha1Hash                   0      0.00%     52.99% # Class of executed instruction
system.cpu.op_class::SimdSha1Hash2                  0      0.00%     52.99% # Class of executed instruction
system.cpu.op_class::SimdSha256Hash                 0      0.00%     52.99% # Class of executed instruction
system.cpu.op_class::SimdSha256Hash2                0      0.00%     52.99% # Class of executed instruction
system.cpu.op_class::SimdShaSigma2                  0      0.00%     52.99% # Class of executed instruction
system.cpu.op_class::SimdShaSigma3                  0      0.00%     52.99% # Class of executed instruction
system.cpu.op_class::SimdPredAlu                    0      0.00%     52.99% # Class of executed instruction
system.cpu.op_class::MemRead                 14663754      8.10%     61.09% # Class of executed instruction
system.cpu.op_class::MemWrite                 4443621      2.45%     63.54% # Class of executed instruction
system.cpu.op_class::FloatMemRead                2669      0.00%     63.54% # Class of executed instruction
system.cpu.op_class::FloatMemWrite           66035416     36.46%    100.00% # Class of executed instruction
system.cpu.op_class::IprAccess                      0      0.00%    100.00% # Class of executed instruction
system.cpu.op_class::InstPrefetch                   0      0.00%    100.00% # Class of executed instruction
system.cpu.op_class::total                  181132362                       # Class of executed instruction
system.cpu.pwrStateResidencyTicks::ON    110141774000                       # Cumulative time (in ticks) in various power states
system.cpu.workload.numSyscalls                   146                       # Number of system calls
system.cpu_clk_domain.clock                       500                       # Clock period in ticks
system.cpu_voltage_domain.voltage                   1                       # Voltage in Volts
system.l2.ReadCleanReq_accesses::.cpu.inst      1293016                       # number of ReadCleanReq accesses(hits+misses)
system.l2.ReadCleanReq_accesses::total        1293016                       # number of ReadCleanReq accesses(hits+misses)
system.l2.ReadCleanReq_hits::.cpu.inst        1286103                       # number of ReadCleanReq hits
system.l2.ReadCleanReq_hits::total            1286103                       # number of ReadCleanReq hits
system.l2.ReadCleanReq_miss_rate::.cpu.inst     0.005346                       # miss rate for ReadCleanReq accesses
system.l2.ReadCleanReq_miss_rate::total      0.005346                       # miss rate for ReadCleanReq accesses
system.l2.ReadCleanReq_misses::.cpu.inst         6913                       # number of ReadCleanReq misses
system.l2.ReadCleanReq_misses::total             6913                       # number of ReadCleanReq misses
system.l2.ReadExReq_accesses::.cpu.data      33199966                       # number of ReadExReq accesses(hits+misses)
system.l2.ReadExReq_accesses::total          33199966                       # number of ReadExReq accesses(hits+misses)
system.l2.ReadExReq_hits::.cpu.data             41757                       # number of ReadExReq hits
system.l2.ReadExReq_hits::total                 41757                       # number of ReadExReq hits
system.l2.ReadExReq_miss_rate::.cpu.data     0.998742                       # miss rate for ReadExReq accesses
system.l2.ReadExReq_miss_rate::total         0.998742                       # miss rate for ReadExReq accesses
system.l2.ReadExReq_misses::.cpu.data        33158209                       # number of ReadExReq misses
system.l2.ReadExReq_misses::total            33158209                       # number of ReadExReq misses
system.l2.ReadSharedReq_accesses::.cpu.data        63294                       # number of ReadSharedReq accesses(hits+misses)
system.l2.ReadSharedReq_accesses::total         63294                       # number of ReadSharedReq accesses(hits+misses)
system.l2.ReadSharedReq_hits::.cpu.data         55054                       # number of ReadSharedReq hits
system.l2.ReadSharedReq_hits::total             55054                       # number of ReadSharedReq hits
system.l2.ReadSharedReq_miss_rate::.cpu.data     0.130186                       # miss rate for ReadSharedReq accesses
system.l2.ReadSharedReq_miss_rate::total     0.130186                       # miss rate for ReadSharedReq accesses
system.l2.ReadSharedReq_misses::.cpu.data         8240                       # number of ReadSharedReq misses
system.l2.ReadSharedReq_misses::total            8240                       # number of ReadSharedReq misses
system.l2.WritebackClean_accesses::.writebacks      1291992                       # number of WritebackClean accesses(hits+misses)
system.l2.WritebackClean_accesses::total      1291992                       # number of WritebackClean accesses(hits+misses)
system.l2.WritebackClean_hits::.writebacks      1291992                       # number of WritebackClean hits
system.l2.WritebackClean_hits::total          1291992                       # number of WritebackClean hits
system.l2.WritebackDirty_accesses::.writebacks     33227591                       # number of WritebackDirty accesses(hits+misses)
system.l2.WritebackDirty_accesses::total     33227591                       # number of WritebackDirty accesses(hits+misses)
system.l2.WritebackDirty_hits::.writebacks     33227591                       # number of WritebackDirty hits
system.l2.WritebackDirty_hits::total         33227591                       # number of WritebackDirty hits
system.l2.avg_blocked_cycles::no_mshrs            nan                       # average number of cycles each access was blocked
system.l2.avg_blocked_cycles::no_targets          nan                       # average number of cycles each access was blocked
system.l2.blocked::no_mshrs                         0                       # number of cycles access was blocked
system.l2.blocked::no_targets                       0                       # number of cycles access was blocked
system.l2.blocked_cycles::no_mshrs                  0                       # number of cycles access was blocked
system.l2.blocked_cycles::no_targets                0                       # number of cycles access was blocked
system.l2.demand_accesses::.cpu.inst          1293016                       # number of demand (read+write) accesses
system.l2.demand_accesses::.cpu.data         33263260                       # number of demand (read+write) accesses
system.l2.demand_accesses::total             34556276                       # number of demand (read+write) accesses
system.l2.demand_hits::.cpu.inst              1286103                       # number of demand (read+write) hits
system.l2.demand_hits::.cpu.data                96811                       # number of demand (read+write) hits
system.l2.demand_hits::total                  1382914                       # number of demand (read+write) hits
system.l2.demand_miss_rate::.cpu.inst        0.005346                       # miss rate for demand accesses
system.l2.demand_miss_rate::.cpu.data        0.997090                       # miss rate for demand accesses
system.l2.demand_miss_rate::total            0.959981                       # miss rate for demand accesses
system.l2.demand_misses::.cpu.inst               6913                       # number of demand (read+write) misses
system.l2.demand_misses::.cpu.data           33166449                       # number of demand (read+write) misses
system.l2.demand_misses::total               33173362                       # number of demand (read+write) misses
system.l2.overall_accesses::.cpu.inst         1293016                       # number of overall (read+write) accesses
system.l2.overall_accesses::.cpu.data        33263260                       # number of overall (read+write) accesses
system.l2.overall_accesses::total            34556276                       # number of overall (read+write) accesses
system.l2.overall_hits::.cpu.inst             1286103                       # number of overall hits
system.l2.overall_hits::.cpu.data               96811                       # number of overall hits
system.l2.overall_hits::total                 1382914                       # number of overall hits
system.l2.overall_miss_rate::.cpu.inst       0.005346                       # miss rate for overall accesses
system.l2.overall_miss_rate::.cpu.data       0.997090                       # miss rate for overall accesses
system.l2.overall_miss_rate::total           0.959981                       # miss rate for overall accesses
system.l2.overall_misses::.cpu.inst              6913                       # number of overall misses
system.l2.overall_misses::.cpu.data          33166449                       # number of overall misses
system.l2.overall_misses::total              33173362                       # number of overall misses
system.l2.pwrStateResidencyTicks::UNDEFINED 110141774000                       # Cumulative time (in ticks) in various power states
system.l2.replacements                       33145662                       # number of replacements
system.l2.tags.age_task_id_blocks_1024::0           11                       # Occupied blocks per task id
system.l2.tags.age_task_id_blocks_1024::1            9                       # Occupied blocks per task id
system.l2.tags.age_task_id_blocks_1024::2          102                       # Occupied blocks per task id
system.l2.tags.age_task_id_blocks_1024::3         1717                       # Occupied blocks per task id
system.l2.tags.age_task_id_blocks_1024::4        30929                       # Occupied blocks per task id
system.l2.tags.avg_refs                      2.082930                       # Average number of references to valid blocks.
system.l2.tags.data_accesses                102287910                       # Number of data accesses
system.l2.tags.occ_blocks::.writebacks     389.979451                       # Average occupied blocks per requestor
system.l2.tags.occ_blocks::.cpu.inst       916.239727                       # Average occupied blocks per requestor
system.l2.tags.occ_blocks::.cpu.data     30730.326414                       # Average occupied blocks per requestor
system.l2.tags.occ_percent::.writebacks      0.011901                       # Average percentage of cache occupancy
system.l2.tags.occ_percent::.cpu.inst        0.027961                       # Average percentage of cache occupancy
system.l2.tags.occ_percent::.cpu.data        0.937815                       # Average percentage of cache occupancy
system.l2.tags.occ_percent::total            0.977678                       # Average percentage of cache occupancy
system.l2.tags.occ_task_id_blocks::1024         32768                       # Occupied blocks per task id
system.l2.tags.occ_task_id_percent::1024            1                       # Percentage of cache occupancy per task id
system.l2.tags.pwrStateResidencyTicks::UNDEFINED 110141774000                       # Cumulative time (in ticks) in various power states
system.l2.tags.sampled_refs                  33178430                       # Sample count of references to valid blocks.
system.l2.tags.tag_accesses                 102287910                       # Number of tag accesses
system.l2.tags.tagsinuse                 32036.545593                       # Cycle average of tags in use
system.l2.tags.total_refs                    69108340                       # Total number of references to valid blocks.
system.l2.tags.warmup_cycle                         0                       # Cycle when the warmup percentage was hit.
system.l2.writebacks::.writebacks            33135087                       # number of writebacks
system.l2.writebacks::total                  33135087                       # number of writebacks
system.mem_ctrls.avgBusLat                        nan                       # Average bus latency per DRAM burst
system.mem_ctrls.avgGap                           nan                       # Average gap between requests
system.mem_ctrls.avgMemAccLat                     nan                       # Average memory access latency per DRAM burst
system.mem_ctrls.avgQLat                          nan                       # Average queueing delay per DRAM burst
system.mem_ctrls.avgRdBW                         0.00                       # Average DRAM read bandwidth in MiByte/s
system.mem_ctrls.avgRdBWSys                      0.00                       # Average system read bandwidth in MiByte/s
system.mem_ctrls.avgRdQLen                       0.00                       # Average read queue length when enqueuing
system.mem_ctrls.avgWrBW                         0.00                       # Average achieved write bandwidth in MiByte/s
system.mem_ctrls.avgWrBWSys                      0.00                       # Average system write bandwidth in MiByte/s
system.mem_ctrls.avgWrQLen                       0.00                       # Average write queue length when enqueuing
system.mem_ctrls.busUtil                         0.00                       # Data bus utilization in percentage
system.mem_ctrls.busUtilRead                     0.00                       # Data bus utilization in percentage for reads
system.mem_ctrls.busUtilWrite                    0.00                       # Data bus utilization in percentage for writes
system.mem_ctrls.bw_inst_read::.cpu.inst      1004233                       # Instruction read bandwidth from this memory (bytes/s)
system.mem_ctrls.bw_inst_read::total          1004233                       # Instruction read bandwidth from this memory (bytes/s)
system.mem_ctrls.bw_read::.cpu.inst           1004233                       # Total read bandwidth from this memory (bytes/s)
system.mem_ctrls.bw_read::.cpu.data        4818001061                       # Total read bandwidth from this memory (bytes/s)
system.mem_ctrls.bw_read::total            4819005294                       # Total read bandwidth from this memory (bytes/s)
system.mem_ctrls.bw_total::.writebacks     4813445187                       # Total bandwidth to/from this memory (bytes/s)
system.mem_ctrls.bw_total::.cpu.inst          1004233                       # Total bandwidth to/from this memory (bytes/s)
system.mem_ctrls.bw_total::.cpu.data       4818001061                       # Total bandwidth to/from this memory (bytes/s)
system.mem_ctrls.bw_total::total           9632450482                       # Total bandwidth to/from this memory (bytes/s)
system.mem_ctrls.bw_write::.writebacks     4813445187                       # Write bandwidth from this memory (bytes/s)
system.mem_ctrls.bw_write::total           4813445187                       # Write bandwidth from this memory (bytes/s)
system.mem_ctrls.bytesReadDRAM                      0                       # Total number of bytes read from DRAM
system.mem_ctrls.bytesReadSys                       0                       # Total read bytes from the system interface side
system.mem_ctrls.bytesReadWrQ                       0                       # Total number of bytes read from write queue
system.mem_ctrls.bytesWritten                       0                       # Total number of bytes written to DRAM
system.mem_ctrls.bytesWrittenSys                    0                       # Total written bytes from the system interface side
system.mem_ctrls.bytes_inst_read::.cpu.inst       110608                       # Number of instructions bytes read from this memory
system.mem_ctrls.bytes_inst_read::total        110608                       # Number of instructions bytes read from this memory
system.mem_ctrls.bytes_read::.cpu.inst         110608                       # Number of bytes read from this memory
system.mem_ctrls.bytes_read::.cpu.data      530663184                       # Number of bytes read from this memory
system.mem_ctrls.bytes_read::total          530773792                       # Number of bytes read from this memory
system.mem_ctrls.bytes_written::.writebacks    530161392                       # Number of bytes written to this memory
system.mem_ctrls.bytes_written::total       530161392                       # Number of bytes written to this memory
system.mem_ctrls.mergedWrBursts                     0                       # Number of DRAM write bursts merged with an existing one
system.mem_ctrls.neitherReadNorWriteReqs            0                       # Number of requests that are neither read nor write
system.mem_ctrls.numRdRetry                         0                       # Number of times read queue was full causing retry
system.mem_ctrls.numReadWriteTurnArounds            0                       # Number of turnarounds from READ to WRITE
system.mem_ctrls.numStayReadState                   0                       # Number of times bus staying in READ state
system.mem_ctrls.numStayWriteState                  0                       # Number of times bus staying in WRITE state
system.mem_ctrls.numWrRetry                         0                       # Number of times write queue was full causing retry
system.mem_ctrls.numWriteReadTurnArounds            0                       # Number of turnarounds from WRITE to READ
system.mem_ctrls.num_reads::.cpu.inst            6913                       # Number of read requests responded to by this memory
system.mem_ctrls.num_reads::.cpu.data        33166449                       # Number of read requests responded to by this memory
system.mem_ctrls.num_reads::total            33173362                       # Number of read requests responded to by this memory
system.mem_ctrls.num_writes::.writebacks     33135087                       # Number of write requests responded to by this memory
system.mem_ctrls.num_writes::total           33135087                       # Number of write requests responded to by this memory
system.mem_ctrls.pageHitRate                      nan                       # Row buffer hit rate, read and write combined
system.mem_ctrls.peakBW                      12800.00                       # Theoretical peak bandwidth in MiByte/s
system.mem_ctrls.perBankRdBursts::0                 0                       # Per bank write bursts
system.mem_ctrls.perBankRdBursts::1                 0                       # Per bank write bursts
system.mem_ctrls.perBankRdBursts::2                 0                       # Per bank write bursts
system.mem_ctrls.perBankRdBursts::3                 0                       # Per bank write bursts
system.mem_ctrls.perBankRdBursts::4                 0                       # Per bank write bursts
system.mem_ctrls.perBankRdBursts::5                 0                       # Per bank write bursts
system.mem_ctrls.perBankRdBursts::6                 0                       # Per bank write bursts
system.mem_ctrls.perBankRdBursts::7                 0                       # Per bank write bursts
system.mem_ctrls.perBankRdBursts::8                 0                       # Per bank write bursts
system.mem_ctrls.perBankRdBursts::9                 0                       # Per bank write bursts
system.mem_ctrls.perBankRdBursts::10                0                       # Per bank write bursts
system.mem_ctrls.perBankRdBursts::11                0                       # Per bank write bursts
system.mem_ctrls.perBankRdBursts::12                0                       # Per bank write bursts
system.mem_ctrls.perBankRdBursts::13                0                       # Per bank write bursts
system.mem_ctrls.perBankRdBursts::14                0                       # Per bank write bursts
system.mem_ctrls.perBankRdBursts::15                0                       # Per bank write bursts
system.mem_ctrls.perBankWrBursts::0                 0                       # Per bank write bursts
system.mem_ctrls.perBankWrBursts::1                 0                       # Per bank write bursts
system.mem_ctrls.perBankWrBursts::2                 0                       # Per bank write bursts
system.mem_ctrls.perBankWrBursts::3                 0                       # Per bank write bursts
system.mem_ctrls.perBankWrBursts::4                 0                       # Per bank write bursts
system.mem_ctrls.perBankWrBursts::5                 0                       # Per bank write bursts
system.mem_ctrls.perBankWrBursts::6                 0                       # Per bank write bursts
system.mem_ctrls.perBankWrBursts::7                 0                       # Per bank write bursts
system.mem_ctrls.perBankWrBursts::8                 0                       # Per bank write bursts
system.mem_ctrls.perBankWrBursts::9                 0                       # Per bank write bursts
system.mem_ctrls.perBankWrBursts::10                0                       # Per bank write bursts
system.mem_ctrls.perBankWrBursts::11                0                       # Per bank write bursts
system.mem_ctrls.perBankWrBursts::12                0                       # Per bank write bursts
system.mem_ctrls.perBankWrBursts::13                0                       # Per bank write bursts
system.mem_ctrls.perBankWrBursts::14                0                       # Per bank write bursts
system.mem_ctrls.perBankWrBursts::15                0                       # Per bank write bursts
system.mem_ctrls.priorityMaxLatency      0.000000000000                       # per QoS priority maximum request to response latency (s)
system.mem_ctrls.priorityMinLatency      0.000000000000                       # per QoS priority minimum request to response latency (s)
system.mem_ctrls.pwrStateResidencyTicks::UNDEFINED 110141774000                       # Cumulative time (in ticks) in various power states
system.mem_ctrls.rdQLenPdf::0                       0                       # What read queue length does an incoming req see
system.mem_ctrls.rdQLenPdf::1                       0                       # What read queue length does an incoming req see
system.mem_ctrls.rdQLenPdf::2                       0                       # What read queue length does an incoming req see
system.mem_ctrls.rdQLenPdf::3                       0                       # What read queue length does an incoming req see
system.mem_ctrls.rdQLenPdf::4                       0                       # What read queue length does an incoming req see
system.mem_ctrls.rdQLenPdf::5                       0                       # What read queue length does an incoming req see
system.mem_ctrls.rdQLenPdf::6                       0                       # What read queue length does an incoming req see
system.mem_ctrls.rdQLenPdf::7                       0                       # What read queue length does an incoming req see
system.mem_ctrls.rdQLenPdf::8                       0                       # What read queue length does an incoming req see
system.mem_ctrls.rdQLenPdf::9                       0                       # What read queue length does an incoming req see
system.mem_ctrls.rdQLenPdf::10                      0                       # What read queue length does an incoming req see
system.mem_ctrls.rdQLenPdf::11                      0                       # What read queue length does an incoming req see
system.mem_ctrls.rdQLenPdf::12                      0                       # What read queue length does an incoming req see
system.mem_ctrls.rdQLenPdf::13                      0                       # What read queue length does an incoming req see
system.mem_ctrls.rdQLenPdf::14                      0                       # What read queue length does an incoming req see
system.mem_ctrls.rdQLenPdf::15                      0                       # What read queue length does an incoming req see
system.mem_ctrls.rdQLenPdf::16                      0                       # What read queue length does an incoming req see
system.mem_ctrls.rdQLenPdf::17                      0                       # What read queue length does an incoming req see
system.mem_ctrls.rdQLenPdf::18                      0                       # What read queue length does an incoming req see
system.mem_ctrls.rdQLenPdf::19                      0                       # What read queue length does an incoming req see
system.mem_ctrls.rdQLenPdf::20                      0                       # What read queue length does an incoming req see
system.mem_ctrls.rdQLenPdf::21                      0                       # What read queue length does an incoming req see
system.mem_ctrls.rdQLenPdf::22                      0                       # What read queue length does an incoming req see
system.mem_ctrls.rdQLenPdf::23                      0                       # What read queue length does an incoming req see
system.mem_ctrls.rdQLenPdf::24                      0                       # What read queue length does an incoming req see
system.mem_ctrls.rdQLenPdf::25                      0                       # What read queue length does an incoming req see
system.mem_ctrls.rdQLenPdf::26                      0                       # What read queue length does an incoming req see
system.mem_ctrls.rdQLenPdf::27                      0                       # What read queue length does an incoming req see
system.mem_ctrls.rdQLenPdf::28                      0                       # What read queue length does an incoming req see
system.mem_ctrls.rdQLenPdf::29                      0                       # What read queue length does an incoming req see
system.mem_ctrls.rdQLenPdf::30                      0                       # What read queue length does an incoming req see
system.mem_ctrls.rdQLenPdf::31                      0                       # What read queue length does an incoming req see
system.mem_ctrls.readBursts                         0                       # Number of DRAM read bursts, including those serviced by the write queue
system.mem_ctrls.readPktSize::0                     0                       # Read request sizes (log2)
system.mem_ctrls.readPktSize::1                     0                       # Read request sizes (log2)
system.mem_ctrls.readPktSize::2                     0                       # Read request sizes (log2)
system.mem_ctrls.readPktSize::3                     0                       # Read request sizes (log2)
system.mem_ctrls.readPktSize::4                     0                       # Read request sizes (log2)
system.mem_ctrls.readPktSize::5                     0                       # Read request sizes (log2)
system.mem_ctrls.readPktSize::6                     0                       # Read request sizes (log2)
system.mem_ctrls.readReqs                           0                       # Number of read requests accepted
system.mem_ctrls.readRowHitRate                   nan                       # Row buffer hit rate for reads
system.mem_ctrls.readRowHits                        0                       # Number of row buffer hits during reads
system.mem_ctrls.servicedByWrQ                      0                       # Number of DRAM read bursts serviced by the write queue
system.mem_ctrls.totBusLat                          0                       # Total ticks spent in databus transfers
system.mem_ctrls.totGap                             0                       # Total gap between requests
system.mem_ctrls.totMemAccLat                       0                       # Total ticks spent from burst creation until serviced by the DRAM
system.mem_ctrls.totQLat                            0                       # Total ticks spent queuing
system.mem_ctrls.wrQLenPdf::0                       0                       # What write queue length does an incoming req see
system.mem_ctrls.wrQLenPdf::1                       0                       # What write queue length does an incoming req see
system.mem_ctrls.wrQLenPdf::2                       0                       # What write queue length does an incoming req see
system.mem_ctrls.wrQLenPdf::3                       0                       # What write queue length does an incoming req see
system.mem_ctrls.wrQLenPdf::4                       0                       # What write queue length does an incoming req see
system.mem_ctrls.wrQLenPdf::5                       0                       # What write queue length does an incoming req see
system.mem_ctrls.wrQLenPdf::6                       0                       # What write queue length does an incoming req see
system.mem_ctrls.wrQLenPdf::7                       0                       # What write queue length does an incoming req see
system.mem_ctrls.wrQLenPdf::8                       0                       # What write queue length does an incoming req see
system.mem_ctrls.wrQLenPdf::9                       0                       # What write queue length does an incoming req see
system.mem_ctrls.wrQLenPdf::10                      0                       # What write queue length does an incoming req see
system.mem_ctrls.wrQLenPdf::11                      0                       # What write queue length does an incoming req see
system.mem_ctrls.wrQLenPdf::12                      0                       # What write queue length does an incoming req see
system.mem_ctrls.wrQLenPdf::13                      0                       # What write queue length does an incoming req see
system.mem_ctrls.wrQLenPdf::14                      0                       # What write queue length does an incoming req see
system.mem_ctrls.wrQLenPdf::15                      0                       # What write queue length does an incoming req see
system.mem_ctrls.wrQLenPdf::16                      0                       # What write queue length does an incoming req see
system.mem_ctrls.wrQLenPdf::17                      0                       # What write queue length does an incoming req see
system.mem_ctrls.wrQLenPdf::18                      0                       # What write queue length does an incoming req see
system.mem_ctrls.wrQLenPdf::19                      0                       # What write queue length does an incoming req see
system.mem_ctrls.wrQLenPdf::20                      0                       # What write queue length does an incoming req see
system.mem_ctrls.wrQLenPdf::21                      0                       # What write queue length does an incoming req see
system.mem_ctrls.wrQLenPdf::22                      0                       # What write queue length does an incoming req see
system.mem_ctrls.wrQLenPdf::23                      0                       # What write queue length does an incoming req see
system.mem_ctrls.wrQLenPdf::24                      0                       # What write queue length does an incoming req see
system.mem_ctrls.wrQLenPdf::25                      0                       # What write queue length does an incoming req see
system.mem_ctrls.wrQLenPdf::26                      0                       # What write queue length does an incoming req see
system.mem_ctrls.wrQLenPdf::27                      0                       # What write queue length does an incoming req see
system.mem_ctrls.wrQLenPdf::28                      0                       # What write queue length does an incoming req see
system.mem_ctrls.wrQLenPdf::29                      0                       # What write queue length does an incoming req see
system.mem_ctrls.wrQLenPdf::30                      0                       # What write queue length does an incoming req see
system.mem_ctrls.wrQLenPdf::31                      0                       # What write queue length does an incoming req see
system.mem_ctrls.wrQLenPdf::32                      0                       # What write queue length does an incoming req see
system.mem_ctrls.wrQLenPdf::33                      0                       # What write queue length does an incoming req see
system.mem_ctrls.wrQLenPdf::34                      0                       # What write queue length does an incoming req see
system.mem_ctrls.wrQLenPdf::35                      0                       # What write queue length does an incoming req see
system.mem_ctrls.wrQLenPdf::36                      0                       # What write queue length does an incoming req see
system.mem_ctrls.wrQLenPdf::37                      0                       # What write queue length does an incoming req see
system.mem_ctrls.wrQLenPdf::38                      0                       # What write queue length does an incoming req see
system.mem_ctrls.wrQLenPdf::39                      0                       # What write queue length does an incoming req see
system.mem_ctrls.wrQLenPdf::40                      0                       # What write queue length does an incoming req see
system.mem_ctrls.wrQLenPdf::41                      0                       # What write queue length does an incoming req see
system.mem_ctrls.wrQLenPdf::42                      0                       # What write queue length does an incoming req see
system.mem_ctrls.wrQLenPdf::43                      0                       # What write queue length does an incoming req see
system.mem_ctrls.wrQLenPdf::44                      0                       # What write queue length does an incoming req see
system.mem_ctrls.wrQLenPdf::45                      0                       # What write queue length does an incoming req see
system.mem_ctrls.wrQLenPdf::46                      0                       # What write queue length does an incoming req see
system.mem_ctrls.wrQLenPdf::47                      0                       # What write queue length does an incoming req see
system.mem_ctrls.wrQLenPdf::48                      0                       # What write queue length does an incoming req see
system.mem_ctrls.wrQLenPdf::49                      0                       # What write queue length does an incoming req see
system.mem_ctrls.wrQLenPdf::50                      0                       # What write queue length does an incoming req see
system.mem_ctrls.wrQLenPdf::51                      0                       # What write queue length does an incoming req see
system.mem_ctrls.wrQLenPdf::52                      0                       # What write queue length does an incoming req see
system.mem_ctrls.wrQLenPdf::53                      0                       # What write queue length does an incoming req see
system.mem_ctrls.wrQLenPdf::54                      0                       # What write queue length does an incoming req see
system.mem_ctrls.wrQLenPdf::55                      0                       # What write queue length does an incoming req see
system.mem_ctrls.wrQLenPdf::56                      0                       # What write queue length does an incoming req see
system.mem_ctrls.wrQLenPdf::57                      0                       # What write queue length does an incoming req see
system.mem_ctrls.wrQLenPdf::58                      0                       # What write queue length does an incoming req see
system.mem_ctrls.wrQLenPdf::59                      0                       # What write queue length does an incoming req see
system.mem_ctrls.wrQLenPdf::60                      0                       # What write queue length does an incoming req see
system.mem_ctrls.wrQLenPdf::61                      0                       # What write queue length does an incoming req see
system.mem_ctrls.wrQLenPdf::62                      0                       # What write queue length does an incoming req see
system.mem_ctrls.wrQLenPdf::63                      0                       # What write queue length does an incoming req see
system.mem_ctrls.writeBursts                        0                       # Number of DRAM write bursts, including those merged in the write queue
system.mem_ctrls.writePktSize::0                    0                       # Write request sizes (log2)
system.mem_ctrls.writePktSize::1                    0                       # Write request sizes (log2)
system.mem_ctrls.writePktSize::2                    0                       # Write request sizes (log2)
system.mem_ctrls.writePktSize::3                    0                       # Write request sizes (log2)
system.mem_ctrls.writePktSize::4                    0                       # Write request sizes (log2)
system.mem_ctrls.writePktSize::5                    0                       # Write request sizes (log2)
system.mem_ctrls.writePktSize::6                    0                       # Write request sizes (log2)
system.mem_ctrls.writeReqs                          0                       # Number of write requests accepted
system.mem_ctrls.writeRowHitRate                  nan                       # Row buffer hit rate for writes
system.mem_ctrls.writeRowHits                       0                       # Number of row buffer hits during writes
system.mem_ctrls_0.actBackEnergy                    0                       # Energy for active background per rank (pJ)
system.mem_ctrls_0.actEnergy                        0                       # Energy for activate commands per rank (pJ)
system.mem_ctrls_0.actPowerDownEnergy               0                       # Energy for active power-down per rank (pJ)
system.mem_ctrls_0.averagePower            384.000003                       # Core power per rank (mW)
system.mem_ctrls_0.memoryStateTime::IDLE 110141774000                       # Time in different power states
system.mem_ctrls_0.memoryStateTime::REF             0                       # Time in different power states
system.mem_ctrls_0.memoryStateTime::SREF            0                       # Time in different power states
system.mem_ctrls_0.memoryStateTime::PRE_PDN            0                       # Time in different power states
system.mem_ctrls_0.memoryStateTime::ACT             0                       # Time in different power states
system.mem_ctrls_0.memoryStateTime::ACT_PDN            0                       # Time in different power states
system.mem_ctrls_0.preBackEnergy          42294441600                       # Energy for precharge background per rank (pJ)
system.mem_ctrls_0.preEnergy                        0                       # Energy for precharge commands per rank (pJ)
system.mem_ctrls_0.prePowerDownEnergy               0                       # Energy for precharge power-down per rank (pJ)
system.mem_ctrls_0.readEnergy                       0                       # Energy for read commands per rank (pJ)
system.mem_ctrls_0.refreshEnergy                    0                       # Energy for refresh commands per rank (pJ)
system.mem_ctrls_0.selfRefreshEnergy                0                       # Energy for self refresh per rank (pJ)
system.mem_ctrls_0.totalEnergy            42294441600                       # Total energy per rank (pJ)
system.mem_ctrls_0.totalIdleTime                    0                       # Total Idle time Per DRAM Rank
system.mem_ctrls_0.writeEnergy                      0                       # Energy for write commands per rank (pJ)
system.mem_ctrls_1.actBackEnergy                    0                       # Energy for active background per rank (pJ)
system.mem_ctrls_1.actEnergy                        0                       # Energy for activate commands per rank (pJ)
system.mem_ctrls_1.actPowerDownEnergy               0                       # Energy for active power-down per rank (pJ)
system.mem_ctrls_1.averagePower            384.000003                       # Core power per rank (mW)
system.mem_ctrls_1.memoryStateTime::IDLE 110141774000                       # Time in different power states
system.mem_ctrls_1.memoryStateTime::REF             0                       # Time in different power states
system.mem_ctrls_1.memoryStateTime::SREF            0                       # Time in different power states
system.mem_ctrls_1.memoryStateTime::PRE_PDN            0                       # Time in different power states
system.mem_ctrls_1.memoryStateTime::ACT             0                       # Time in different power states
system.mem_ctrls_1.memoryStateTime::ACT_PDN            0                       # Time in different power states
system.mem_ctrls_1.preBackEnergy          42294441600                       # Energy for precharge background per rank (pJ)
system.mem_ctrls_1.preEnergy                        0                       # Energy for precharge commands per rank (pJ)
system.mem_ctrls_1.prePowerDownEnergy               0                       # Energy for precharge power-down per rank (pJ)
system.mem_ctrls_1.readEnergy                       0                       # Energy for read commands per rank (pJ)
system.mem_ctrls_1.refreshEnergy                    0                       # Energy for refresh commands per rank (pJ)
system.mem_ctrls_1.selfRefreshEnergy                0                       # Energy for self refresh per rank (pJ)
system.mem_ctrls_1.totalEnergy            42294441600                       # Total energy per rank (pJ)
system.mem_ctrls_1.totalIdleTime                    0                       # Total Idle time Per DRAM Rank
system.mem_ctrls_1.writeEnergy                      0                       # Energy for write commands per rank (pJ)
system.membus.pkt_count_system.l2.mem_side::system.mem_ctrls.port     99487103                       # Packet count per connected master and slave (bytes)
system.membus.pkt_count_system.l2.mem_side::total     99487103                       # Packet count per connected master and slave (bytes)
system.membus.pkt_count::total               99487103                       # Packet count per connected master and slave (bytes)
system.membus.pkt_size_system.l2.mem_side::system.mem_ctrls.port   1060935184                       # Cumulative packet size per connected master and slave (bytes)
system.membus.pkt_size_system.l2.mem_side::total   1060935184                       # Cumulative packet size per connected master and slave (bytes)
system.membus.pkt_size::total              1060935184                       # Cumulative packet size per connected master and slave (bytes)
system.membus.pwrStateResidencyTicks::UNDEFINED 110141774000                       # Cumulative time (in ticks) in various power states
system.membus.snoopTraffic                          0                       # Total snoop traffic (bytes)
system.membus.snoop_fanout::samples          33173362                       # Request fanout histogram
system.membus.snoop_fanout::mean                    0                       # Request fanout histogram
system.membus.snoop_fanout::stdev                   0                       # Request fanout histogram
system.membus.snoop_fanout::underflows              0      0.00%      0.00% # Request fanout histogram
system.membus.snoop_fanout::0                33173362    100.00%    100.00% # Request fanout histogram
system.membus.snoop_fanout::1                       0      0.00%    100.00% # Request fanout histogram
system.membus.snoop_fanout::overflows               0      0.00%    100.00% # Request fanout histogram
system.membus.snoop_fanout::min_value               0                       # Request fanout histogram
system.membus.snoop_fanout::max_value               0                       # Request fanout histogram
system.membus.snoop_fanout::total            33173362                       # Request fanout histogram
system.membus.snoop_filter.hit_multi_requests            0                       # Number of requests hitting in the snoop filter with multiple (>1) holders of the requested data.
system.membus.snoop_filter.hit_multi_snoops            0                       # Number of snoops hitting in the snoop filter with multiple (>1) holders of the requested data.
system.membus.snoop_filter.hit_single_requests     33140379                       # Number of requests hitting in the snoop filter with a single holder of the requested data.
system.membus.snoop_filter.hit_single_snoops            0                       # Number of snoops hitting in the snoop filter with a single holder of the requested data.
system.membus.snoop_filter.tot_requests      66313741                       # Total number of requests made to the snoop filter.
system.membus.snoop_filter.tot_snoops               0                       # Total number of snoops made to the snoop filter.
system.membus.snoops                                0                       # Total snoops (count)
system.membus.trans_dist::ReadResp              15153                       # Transaction distribution
system.membus.trans_dist::WritebackDirty     33135087                       # Transaction distribution
system.membus.trans_dist::CleanEvict             5292                       # Transaction distribution
system.membus.trans_dist::ReadExReq          33158209                       # Transaction distribution
system.membus.trans_dist::ReadExResp         33158209                       # Transaction distribution
system.membus.trans_dist::ReadSharedReq         15153                       # Transaction distribution
system.pwrStateResidencyTicks::UNDEFINED 110141774000                       # Cumulative time (in ticks) in various power states
system.tol2bus.pkt_count_system.cpu.icache.mem_side::system.l2.cpu_side      3878024                       # Packet count per connected master and slave (bytes)
system.tol2bus.pkt_count_system.cpu.dcache.mem_side::system.l2.cpu_side     99787732                       # Packet count per connected master and slave (bytes)
system.tol2bus.pkt_count::total             103665756                       # Packet count per connected master and slave (bytes)
system.tol2bus.pkt_size_system.cpu.icache.mem_side::system.l2.cpu_side     41360128                       # Cumulative packet size per connected master and slave (bytes)
system.tol2bus.pkt_size_system.cpu.dcache.mem_side::system.l2.cpu_side   1063853616                       # Cumulative packet size per connected master and slave (bytes)
system.tol2bus.pkt_size::total             1105213744                       # Cumulative packet size per connected master and slave (bytes)
system.tol2bus.pwrStateResidencyTicks::UNDEFINED 110141774000                       # Cumulative time (in ticks) in various power states
system.tol2bus.snoopTraffic                 530161392                       # Total snoop traffic (bytes)
system.tol2bus.snoop_fanout::samples         67701938                       # Request fanout histogram
system.tol2bus.snoop_fanout::mean            0.000095                       # Request fanout histogram
system.tol2bus.snoop_fanout::stdev           0.009740                       # Request fanout histogram
system.tol2bus.snoop_fanout::underflows             0      0.00%      0.00% # Request fanout histogram
system.tol2bus.snoop_fanout::0               67695515     99.99%     99.99% # Request fanout histogram
system.tol2bus.snoop_fanout::1                   6423      0.01%    100.00% # Request fanout histogram
system.tol2bus.snoop_fanout::2                      0      0.00%    100.00% # Request fanout histogram
system.tol2bus.snoop_fanout::3                      0      0.00%    100.00% # Request fanout histogram
system.tol2bus.snoop_fanout::4                      0      0.00%    100.00% # Request fanout histogram
system.tol2bus.snoop_fanout::overflows              0      0.00%    100.00% # Request fanout histogram
system.tol2bus.snoop_fanout::min_value              0                       # Request fanout histogram
system.tol2bus.snoop_fanout::max_value              1                       # Request fanout histogram
system.tol2bus.snoop_fanout::total           67701938                       # Request fanout histogram
system.tol2bus.snoop_filter.hit_multi_requests            0                       # Number of requests hitting in the snoop filter with multiple (>1) holders of the requested data.
system.tol2bus.snoop_filter.hit_multi_snoops            0                       # Number of snoops hitting in the snoop filter with multiple (>1) holders of the requested data.
system.tol2bus.snoop_filter.hit_single_requests     34553204                       # Number of requests hitting in the snoop filter with a single holder of the requested data.
system.tol2bus.snoop_filter.hit_single_snoops         6423                       # Number of snoops hitting in the snoop filter with a single holder of the requested data.
system.tol2bus.snoop_filter.tot_requests     69109480                       # Total number of requests made to the snoop filter.
system.tol2bus.snoop_filter.tot_snoops           6423                       # Total number of snoops made to the snoop filter.
system.tol2bus.snoops                        33145662                       # Total snoops (count)
system.tol2bus.trans_dist::ReadResp           1356310                       # Transaction distribution
system.tol2bus.trans_dist::WritebackDirty     33227591                       # Transaction distribution
system.tol2bus.trans_dist::WritebackClean      1291992                       # Transaction distribution
system.tol2bus.trans_dist::CleanEvict           33621                       # Transaction distribution
system.tol2bus.trans_dist::ReadExReq         33199966                       # Transaction distribution
system.tol2bus.trans_dist::ReadExResp        33199966                       # Transaction distribution
system.tol2bus.trans_dist::ReadCleanReq       1293016                       # Transaction distribution
system.tol2bus.trans_dist::ReadSharedReq        63294                       # Transaction distribution
system.voltage_domain.voltage                       1                       # Voltage in Volts

---------- End Simulation Statistics   ----------
