
---------- Begin Simulation Statistics ----------
final_tick                                84295259000                       # Number of ticks from beginning of simulation (restored from checkpoints and never reset)
host_inst_rate                                1131383                       # Simulator instruction rate (inst/s)
host_mem_usage                                 836984                       # Number of bytes of host memory used
host_op_rate                                  1464207                       # Simulator op (including micro ops) rate (op/s)
host_seconds                                    88.39                       # Real time elapsed on the host
host_tick_rate                              953695625                       # Simulator tick rate (ticks/s)
sim_freq                                 1000000000000                       # Frequency of simulated ticks
sim_insts                                   100000001                       # Number of instructions simulated
sim_ops                                     129418327                       # Number of ops (including micro ops) simulated
sim_seconds                                  0.084295                       # Number of seconds simulated
sim_ticks                                 84295259000                       # Number of ticks simulated
system.clk_domain.clock                          1000                       # Clock period in ticks
system.cpu.Branches                           5605300                       # Number of branches fetched
system.cpu.apic_clk_domain.clock                 8000                       # Clock period in ticks
system.cpu.committedInsts                   100000001                       # Number of instructions committed
system.cpu.committedOps                     129418327                       # Number of ops (including micro ops) committed
system.cpu.dcache.ReadReq_accesses::.cpu.data     44075657                       # number of ReadReq accesses(hits+misses)
system.cpu.dcache.ReadReq_accesses::total     44075657                       # number of ReadReq accesses(hits+misses)
system.cpu.dcache.ReadReq_hits::.cpu.data     43763958                       # number of ReadReq hits
system.cpu.dcache.ReadReq_hits::total        43763958                       # number of ReadReq hits
system.cpu.dcache.ReadReq_miss_rate::.cpu.data     0.007072                       # miss rate for ReadReq accesses
system.cpu.dcache.ReadReq_miss_rate::total     0.007072                       # miss rate for ReadReq accesses
system.cpu.dcache.ReadReq_misses::.cpu.data       311699                       # number of ReadReq misses
system.cpu.dcache.ReadReq_misses::total        311699                       # number of ReadReq misses
system.cpu.dcache.SoftPFReq_accesses::.cpu.data         2224                       # number of SoftPFReq accesses(hits+misses)
system.cpu.dcache.SoftPFReq_accesses::total         2224                       # number of SoftPFReq accesses(hits+misses)
system.cpu.dcache.SoftPFReq_miss_rate::.cpu.data            1                       # miss rate for SoftPFReq accesses
system.cpu.dcache.SoftPFReq_miss_rate::total            1                       # miss rate for SoftPFReq accesses
system.cpu.dcache.SoftPFReq_misses::.cpu.data         2224                       # number of SoftPFReq misses
system.cpu.dcache.SoftPFReq_misses::total         2224                       # number of SoftPFReq misses
system.cpu.dcache.WriteReq_accesses::.cpu.data      7189065                       # number of WriteReq accesses(hits+misses)
system.cpu.dcache.WriteReq_accesses::total      7189065                       # number of WriteReq accesses(hits+misses)
system.cpu.dcache.WriteReq_hits::.cpu.data      6824966                       # number of WriteReq hits
system.cpu.dcache.WriteReq_hits::total        6824966                       # number of WriteReq hits
system.cpu.dcache.WriteReq_miss_rate::.cpu.data     0.050646                       # miss rate for WriteReq accesses
system.cpu.dcache.WriteReq_miss_rate::total     0.050646                       # miss rate for WriteReq accesses
system.cpu.dcache.WriteReq_misses::.cpu.data       364099                       # number of WriteReq misses
system.cpu.dcache.WriteReq_misses::total       364099                       # number of WriteReq misses
system.cpu.dcache.avg_blocked_cycles::no_mshrs          nan                       # average number of cycles each access was blocked
system.cpu.dcache.avg_blocked_cycles::no_targets          nan                       # average number of cycles each access was blocked
system.cpu.dcache.blocked::no_mshrs                 0                       # number of cycles access was blocked
system.cpu.dcache.blocked::no_targets               0                       # number of cycles access was blocked
system.cpu.dcache.blocked_cycles::no_mshrs            0                       # number of cycles access was blocked
system.cpu.dcache.blocked_cycles::no_targets            0                       # number of cycles access was blocked
system.cpu.dcache.demand_accesses::.cpu.data     51264722                       # number of demand (read+write) accesses
system.cpu.dcache.demand_accesses::total     51264722                       # number of demand (read+write) accesses
system.cpu.dcache.demand_hits::.cpu.data     50588924                       # number of demand (read+write) hits
system.cpu.dcache.demand_hits::total         50588924                       # number of demand (read+write) hits
system.cpu.dcache.demand_miss_rate::.cpu.data     0.013183                       # miss rate for demand accesses
system.cpu.dcache.demand_miss_rate::total     0.013183                       # miss rate for demand accesses
system.cpu.dcache.demand_misses::.cpu.data       675798                       # number of demand (read+write) misses
system.cpu.dcache.demand_misses::total         675798                       # number of demand (read+write) misses
system.cpu.dcache.overall_accesses::.cpu.data     51266946                       # number of overall (read+write) accesses
system.cpu.dcache.overall_accesses::total     51266946                       # number of overall (read+write) accesses
system.cpu.dcache.overall_hits::.cpu.data     50588924                       # number of overall hits
system.cpu.dcache.overall_hits::total        50588924                       # number of overall hits
system.cpu.dcache.overall_miss_rate::.cpu.data     0.013225                       # miss rate for overall accesses
system.cpu.dcache.overall_miss_rate::total     0.013225                       # miss rate for overall accesses
system.cpu.dcache.overall_misses::.cpu.data       678022                       # number of overall misses
system.cpu.dcache.overall_misses::total        678022                       # number of overall misses
system.cpu.dcache.pwrStateResidencyTicks::UNDEFINED  84295259000                       # Cumulative time (in ticks) in various power states
system.cpu.dcache.replacements                 676998                       # number of replacements
system.cpu.dcache.tags.age_task_id_blocks_1024::0           60                       # Occupied blocks per task id
system.cpu.dcache.tags.age_task_id_blocks_1024::1          414                       # Occupied blocks per task id
system.cpu.dcache.tags.age_task_id_blocks_1024::2          550                       # Occupied blocks per task id
system.cpu.dcache.tags.avg_refs             75.612511                       # Average number of references to valid blocks.
system.cpu.dcache.tags.data_accesses         51944968                       # Number of data accesses
system.cpu.dcache.tags.occ_blocks::.cpu.data  1022.943661                       # Average occupied blocks per requestor
system.cpu.dcache.tags.occ_percent::.cpu.data     0.998968                       # Average percentage of cache occupancy
system.cpu.dcache.tags.occ_percent::total     0.998968                       # Average percentage of cache occupancy
system.cpu.dcache.tags.occ_task_id_blocks::1024         1024                       # Occupied blocks per task id
system.cpu.dcache.tags.occ_task_id_percent::1024            1                       # Percentage of cache occupancy per task id
system.cpu.dcache.tags.pwrStateResidencyTicks::UNDEFINED  84295259000                       # Cumulative time (in ticks) in various power states
system.cpu.dcache.tags.sampled_refs            678022                       # Sample count of references to valid blocks.
system.cpu.dcache.tags.tag_accesses          51944968                       # Number of tag accesses
system.cpu.dcache.tags.tagsinuse          1022.943661                       # Cycle average of tags in use
system.cpu.dcache.tags.total_refs            51266946                       # Total number of references to valid blocks.
system.cpu.dcache.tags.warmup_cycle              1000                       # Cycle when the warmup percentage was hit.
system.cpu.dcache.writebacks::.writebacks       666667                       # number of writebacks
system.cpu.dcache.writebacks::total            666667                       # number of writebacks
system.cpu.dtb.pwrStateResidencyTicks::UNDEFINED  84295259000                       # Cumulative time (in ticks) in various power states
system.cpu.dtb.rdAccesses                    44077881                       # TLB accesses on read requests
system.cpu.dtb.rdMisses                            65                       # TLB misses on read requests
system.cpu.dtb.walker.pwrStateResidencyTicks::UNDEFINED  84295259000                       # Cumulative time (in ticks) in various power states
system.cpu.dtb.wrAccesses                     7189065                       # TLB accesses on write requests
system.cpu.dtb.wrMisses                            84                       # TLB misses on write requests
system.cpu.dtb_walker_cache.avg_blocked_cycles::no_mshrs          nan                       # average number of cycles each access was blocked
system.cpu.dtb_walker_cache.avg_blocked_cycles::no_targets          nan                       # average number of cycles each access was blocked
system.cpu.dtb_walker_cache.blocked::no_mshrs            0                       # number of cycles access was blocked
system.cpu.dtb_walker_cache.blocked::no_targets            0                       # number of cycles access was blocked
system.cpu.dtb_walker_cache.blocked_cycles::no_mshrs            0                       # number of cycles access was blocked
system.cpu.dtb_walker_cache.blocked_cycles::no_targets            0                       # number of cycles access was blocked
system.cpu.dtb_walker_cache.pwrStateResidencyTicks::UNDEFINED  84295259000                       # Cumulative time (in ticks) in various power states
system.cpu.dtb_walker_cache.replacements            0                       # number of replacements
system.cpu.dtb_walker_cache.tags.avg_refs          nan                       # Average number of references to valid blocks.
system.cpu.dtb_walker_cache.tags.data_accesses            0                       # Number of data accesses
system.cpu.dtb_walker_cache.tags.pwrStateResidencyTicks::UNDEFINED  84295259000                       # Cumulative time (in ticks) in various power states
system.cpu.dtb_walker_cache.tags.sampled_refs            0                       # Sample count of references to valid blocks.
system.cpu.dtb_walker_cache.tags.tag_accesses            0                       # Number of tag accesses
system.cpu.dtb_walker_cache.tags.tagsinuse            0                       # Cycle average of tags in use
system.cpu.dtb_walker_cache.tags.total_refs            0                       # Total number of references to valid blocks.
system.cpu.dtb_walker_cache.tags.warmup_cycle            0                       # Cycle when the warmup percentage was hit.
system.cpu.icache.ReadReq_accesses::.cpu.inst    139172293                       # number of ReadReq accesses(hits+misses)
system.cpu.icache.ReadReq_accesses::total    139172293                       # number of ReadReq accesses(hits+misses)
system.cpu.icache.ReadReq_hits::.cpu.inst    139146763                       # number of ReadReq hits
system.cpu.icache.ReadReq_hits::total       139146763                       # number of ReadReq hits
system.cpu.icache.ReadReq_miss_rate::.cpu.inst     0.000183                       # miss rate for ReadReq accesses
system.cpu.icache.ReadReq_miss_rate::total     0.000183                       # miss rate for ReadReq accesses
system.cpu.icache.ReadReq_misses::.cpu.inst        25530                       # number of ReadReq misses
system.cpu.icache.ReadReq_misses::total         25530                       # number of ReadReq misses
system.cpu.icache.avg_blocked_cycles::no_mshrs          nan                       # average number of cycles each access was blocked
system.cpu.icache.avg_blocked_cycles::no_targets          nan                       # average number of cycles each access was blocked
system.cpu.icache.blocked::no_mshrs                 0                       # number of cycles access was blocked
system.cpu.icache.blocked::no_targets               0                       # number of cycles access was blocked
system.cpu.icache.blocked_cycles::no_mshrs            0                       # number of cycles access was blocked
system.cpu.icache.blocked_cycles::no_targets            0                       # number of cycles access was blocked
system.cpu.icache.demand_accesses::.cpu.inst    139172293                       # number of demand (read+write) accesses
system.cpu.icache.demand_accesses::total    139172293                       # number of demand (read+write) accesses
system.cpu.icache.demand_hits::.cpu.inst    139146763                       # number of demand (read+write) hits
system.cpu.icache.demand_hits::total        139146763                       # number of demand (read+write) hits
system.cpu.icache.demand_miss_rate::.cpu.inst     0.000183                       # miss rate for demand accesses
system.cpu.icache.demand_miss_rate::total     0.000183                       # miss rate for demand accesses
system.cpu.icache.demand_misses::.cpu.inst        25530                       # number of demand (read+write) misses
system.cpu.icache.demand_misses::total          25530                       # number of demand (read+write) misses
system.cpu.icache.overall_accesses::.cpu.inst    139172293                       # number of overall (read+write) accesses
system.cpu.icache.overall_accesses::total    139172293                       # number of overall (read+write) accesses
system.cpu.icache.overall_hits::.cpu.inst    139146763                       # number of overall hits
system.cpu.icache.overall_hits::total       139146763                       # number of overall hits
system.cpu.icache.overall_miss_rate::.cpu.inst     0.000183                       # miss rate for overall accesses
system.cpu.icache.overall_miss_rate::total     0.000183                       # miss rate for overall accesses
system.cpu.icache.overall_misses::.cpu.inst        25530                       # number of overall misses
system.cpu.icache.overall_misses::total         25530                       # number of overall misses
system.cpu.icache.pwrStateResidencyTicks::UNDEFINED  84295259000                       # Cumulative time (in ticks) in various power states
system.cpu.icache.replacements                  24506                       # number of replacements
system.cpu.icache.tags.age_task_id_blocks_1024::2           56                       # Occupied blocks per task id
system.cpu.icache.tags.age_task_id_blocks_1024::3            5                       # Occupied blocks per task id
system.cpu.icache.tags.age_task_id_blocks_1024::4          963                       # Occupied blocks per task id
system.cpu.icache.tags.avg_refs           5451.323658                       # Average number of references to valid blocks.
system.cpu.icache.tags.data_accesses        139197823                       # Number of data accesses
system.cpu.icache.tags.occ_blocks::.cpu.inst  1023.573789                       # Average occupied blocks per requestor
system.cpu.icache.tags.occ_percent::.cpu.inst     0.999584                       # Average percentage of cache occupancy
system.cpu.icache.tags.occ_percent::total     0.999584                       # Average percentage of cache occupancy
system.cpu.icache.tags.occ_task_id_blocks::1024         1024                       # Occupied blocks per task id
system.cpu.icache.tags.occ_task_id_percent::1024            1                       # Percentage of cache occupancy per task id
system.cpu.icache.tags.pwrStateResidencyTicks::UNDEFINED  84295259000                       # Cumulative time (in ticks) in various power states
system.cpu.icache.tags.sampled_refs             25530                       # Sample count of references to valid blocks.
system.cpu.icache.tags.tag_accesses         139197823                       # Number of tag accesses
system.cpu.icache.tags.tagsinuse          1023.573789                       # Cycle average of tags in use
system.cpu.icache.tags.total_refs           139172293                       # Total number of references to valid blocks.
system.cpu.icache.tags.warmup_cycle                 0                       # Cycle when the warmup percentage was hit.
system.cpu.icache.writebacks::.writebacks        24506                       # number of writebacks
system.cpu.icache.writebacks::total             24506                       # number of writebacks
system.cpu.idle_fraction                            0                       # Percentage of idle cycles
system.cpu.interrupts.pwrStateResidencyTicks::UNDEFINED  84295259000                       # Cumulative time (in ticks) in various power states
system.cpu.itb.pwrStateResidencyTicks::UNDEFINED  84295259000                       # Cumulative time (in ticks) in various power states
system.cpu.itb.rdAccesses                           0                       # TLB accesses on read requests
system.cpu.itb.rdMisses                             0                       # TLB misses on read requests
system.cpu.itb.walker.pwrStateResidencyTicks::UNDEFINED  84295259000                       # Cumulative time (in ticks) in various power states
system.cpu.itb.wrAccesses                   139172293                       # TLB accesses on write requests
system.cpu.itb.wrMisses                            96                       # TLB misses on write requests
system.cpu.itb_walker_cache.avg_blocked_cycles::no_mshrs          nan                       # average number of cycles each access was blocked
system.cpu.itb_walker_cache.avg_blocked_cycles::no_targets          nan                       # average number of cycles each access was blocked
system.cpu.itb_walker_cache.blocked::no_mshrs            0                       # number of cycles access was blocked
system.cpu.itb_walker_cache.blocked::no_targets            0                       # number of cycles access was blocked
system.cpu.itb_walker_cache.blocked_cycles::no_mshrs            0                       # number of cycles access was blocked
system.cpu.itb_walker_cache.blocked_cycles::no_targets            0                       # number of cycles access was blocked
system.cpu.itb_walker_cache.pwrStateResidencyTicks::UNDEFINED  84295259000                       # Cumulative time (in ticks) in various power states
system.cpu.itb_walker_cache.replacements            0                       # number of replacements
system.cpu.itb_walker_cache.tags.avg_refs          nan                       # Average number of references to valid blocks.
system.cpu.itb_walker_cache.tags.data_accesses            0                       # Number of data accesses
system.cpu.itb_walker_cache.tags.pwrStateResidencyTicks::UNDEFINED  84295259000                       # Cumulative time (in ticks) in various power states
system.cpu.itb_walker_cache.tags.sampled_refs            0                       # Sample count of references to valid blocks.
system.cpu.itb_walker_cache.tags.tag_accesses            0                       # Number of tag accesses
system.cpu.itb_walker_cache.tags.tagsinuse            0                       # Cycle average of tags in use
system.cpu.itb_walker_cache.tags.total_refs            0                       # Total number of references to valid blocks.
system.cpu.itb_walker_cache.tags.warmup_cycle            0                       # Cycle when the warmup percentage was hit.
system.cpu.not_idle_fraction                        1                       # Percentage of non-idle cycles
system.cpu.numCycles                        168590619                       # number of cpu cycles simulated
system.cpu.numWorkItemsCompleted                    0                       # number of work items this cpu completed
system.cpu.numWorkItemsStarted                      0                       # number of work items this cpu started
system.cpu.num_busy_cycles                  168590619                       # Number of busy cycles
system.cpu.num_cc_register_reads             37898422                       # number of times the CC registers were read
system.cpu.num_cc_register_writes            52190994                       # number of times the CC registers were written
system.cpu.num_conditional_control_insts      5122757                       # number of instructions that are conditional controls
system.cpu.num_fp_alu_accesses                5685562                       # Number of float alu accesses
system.cpu.num_fp_insts                       5685562                       # number of float instructions
system.cpu.num_fp_register_reads              4656979                       # number of times the floating registers were read
system.cpu.num_fp_register_writes             4867833                       # number of times the floating registers were written
system.cpu.num_func_calls                      317989                       # number of times a function call or return occured
system.cpu.num_idle_cycles                          0                       # Number of idle cycles
system.cpu.num_int_alu_accesses             125468343                       # Number of integer alu accesses
system.cpu.num_int_insts                    125468343                       # number of integer instructions
system.cpu.num_int_register_reads           293938289                       # number of times the integer registers were read
system.cpu.num_int_register_writes          114071297                       # number of times the integer registers were written
system.cpu.num_load_insts                    43772535                       # Number of load instructions
system.cpu.num_mem_refs                      50961298                       # number of memory refs
system.cpu.num_store_insts                    7188763                       # Number of store instructions
system.cpu.num_vec_alu_accesses                     0                       # Number of vector alu accesses
system.cpu.num_vec_insts                            0                       # number of vector instructions
system.cpu.num_vec_register_reads                   0                       # number of times the vector registers were read
system.cpu.num_vec_register_writes                  0                       # number of times the vector registers were written
system.cpu.op_class::No_OpClass                334108      0.26%      0.26% # Class of executed instruction
system.cpu.op_class::IntAlu                  73075982     56.46%     56.72% # Class of executed instruction
system.cpu.op_class::IntMult                   130170      0.10%     56.82% # Class of executed instruction
system.cpu.op_class::IntDiv                   1267448      0.98%     57.80% # Class of executed instruction
system.cpu.op_class::FloatAdd                 1901991      1.47%     59.27% # Class of executed instruction
system.cpu.op_class::FloatCmp                       0      0.00%     59.27% # Class of executed instruction
system.cpu.op_class::FloatCvt                       0      0.00%     59.27% # Class of executed instruction
system.cpu.op_class::FloatMult                      0      0.00%     59.27% # Class of executed instruction
system.cpu.op_class::FloatMultAcc                   0      0.00%     59.27% # Class of executed instruction
system.cpu.op_class::FloatDiv                       0      0.00%     59.27% # Class of executed instruction
system.cpu.op_class::FloatMisc                      0      0.00%     59.27% # Class of executed instruction
system.cpu.op_class::FloatSqrt                      0      0.00%     59.27% # Class of executed instruction
system.cpu.op_class::SimdAdd                      602      0.00%     59.27% # Class of executed instruction
system.cpu.op_class::SimdAddAcc                     0      0.00%     59.27% # Class of executed instruction
system.cpu.op_class::SimdAlu                   164010      0.13%     59.40% # Class of executed instruction
system.cpu.op_class::SimdCmp                      204      0.00%     59.40% # Class of executed instruction
system.cpu.op_class::SimdCvt                   181752      0.14%     59.54% # Class of executed instruction
system.cpu.op_class::SimdMisc                  403697      0.31%     59.85% # Class of executed instruction
system.cpu.op_class::SimdMult                       0      0.00%     59.85% # Class of executed instruction
system.cpu.op_class::SimdMultAcc                    0      0.00%     59.85% # Class of executed instruction
system.cpu.op_class::SimdShift                    189      0.00%     59.85% # Class of executed instruction
system.cpu.op_class::SimdShiftAcc                   0      0.00%     59.85% # Class of executed instruction
system.cpu.op_class::SimdDiv                        0      0.00%     59.85% # Class of executed instruction
system.cpu.op_class::SimdSqrt                       0      0.00%     59.85% # Class of executed instruction
system.cpu.op_class::SimdFloatAdd              337607      0.26%     60.11% # Class of executed instruction
system.cpu.op_class::SimdFloatAlu                   0      0.00%     60.11% # Class of executed instruction
system.cpu.op_class::SimdFloatCmp                   0      0.00%     60.11% # Class of executed instruction
system.cpu.op_class::SimdFloatCvt              543458      0.42%     60.53% # Class of executed instruction
system.cpu.op_class::SimdFloatDiv               63386      0.05%     60.58% # Class of executed instruction
system.cpu.op_class::SimdFloatMisc                  0      0.00%     60.58% # Class of executed instruction
system.cpu.op_class::SimdFloatMult              52425      0.04%     60.62% # Class of executed instruction
system.cpu.op_class::SimdFloatMultAcc               0      0.00%     60.62% # Class of executed instruction
system.cpu.op_class::SimdFloatSqrt                  0      0.00%     60.62% # Class of executed instruction
system.cpu.op_class::SimdReduceAdd                  0      0.00%     60.62% # Class of executed instruction
system.cpu.op_class::SimdReduceAlu                  0      0.00%     60.62% # Class of executed instruction
system.cpu.op_class::SimdReduceCmp                  0      0.00%     60.62% # Class of executed instruction
system.cpu.op_class::SimdFloatReduceAdd             0      0.00%     60.62% # Class of executed instruction
system.cpu.op_class::SimdFloatReduceCmp             0      0.00%     60.62% # Class of executed instruction
system.cpu.op_class::SimdAes                        0      0.00%     60.62% # Class of executed instruction
system.cpu.op_class::SimdAesMix                     0      0.00%     60.62% # Class of executed instruction
system.cpu.op_class::SimdSha1Hash                   0      0.00%     60.62% # Class of executed instruction
system.cpu.op_class::SimdSha1Hash2                  0      0.00%     60.62% # Class of executed instruction
system.cpu.op_class::SimdSha256Hash                 0      0.00%     60.62% # Class of executed instruction
system.cpu.op_class::SimdSha256Hash2                0      0.00%     60.62% # Class of executed instruction
system.cpu.op_class::SimdShaSigma2                  0      0.00%     60.62% # Class of executed instruction
system.cpu.op_class::SimdShaSigma3                  0      0.00%     60.62% # Class of executed instruction
system.cpu.op_class::SimdPredAlu                    0      0.00%     60.62% # Class of executed instruction
system.cpu.op_class::MemRead                 42296949     32.68%     93.31% # Class of executed instruction
system.cpu.op_class::MemWrite                 6811629      5.26%     98.57% # Class of executed instruction
system.cpu.op_class::FloatMemRead             1475586      1.14%     99.71% # Class of executed instruction
system.cpu.op_class::FloatMemWrite             377134      0.29%    100.00% # Class of executed instruction
system.cpu.op_class::IprAccess                      0      0.00%    100.00% # Class of executed instruction
system.cpu.op_class::InstPrefetch                   0      0.00%    100.00% # Class of executed instruction
system.cpu.op_class::total                  129418327                       # Class of executed instruction
system.cpu.pwrStateResidencyTicks::ON     84295259000                       # Cumulative time (in ticks) in various power states
system.cpu.workload.numSyscalls                    34                       # Number of system calls
system.cpu_clk_domain.clock                       500                       # Clock period in ticks
system.cpu_voltage_domain.voltage                   1                       # Voltage in Volts
system.l2.ReadCleanReq_accesses::.cpu.inst        25530                       # number of ReadCleanReq accesses(hits+misses)
system.l2.ReadCleanReq_accesses::total          25530                       # number of ReadCleanReq accesses(hits+misses)
system.l2.ReadCleanReq_hits::.cpu.inst          19655                       # number of ReadCleanReq hits
system.l2.ReadCleanReq_hits::total              19655                       # number of ReadCleanReq hits
system.l2.ReadCleanReq_miss_rate::.cpu.inst     0.230121                       # miss rate for ReadCleanReq accesses
system.l2.ReadCleanReq_miss_rate::total      0.230121                       # miss rate for ReadCleanReq accesses
system.l2.ReadCleanReq_misses::.cpu.inst         5875                       # number of ReadCleanReq misses
system.l2.ReadCleanReq_misses::total             5875                       # number of ReadCleanReq misses
system.l2.ReadExReq_accesses::.cpu.data        364099                       # number of ReadExReq accesses(hits+misses)
system.l2.ReadExReq_accesses::total            364099                       # number of ReadExReq accesses(hits+misses)
system.l2.ReadExReq_hits::.cpu.data            347402                       # number of ReadExReq hits
system.l2.ReadExReq_hits::total                347402                       # number of ReadExReq hits
system.l2.ReadExReq_miss_rate::.cpu.data     0.045858                       # miss rate for ReadExReq accesses
system.l2.ReadExReq_miss_rate::total         0.045858                       # miss rate for ReadExReq accesses
system.l2.ReadExReq_misses::.cpu.data           16697                       # number of ReadExReq misses
system.l2.ReadExReq_misses::total               16697                       # number of ReadExReq misses
system.l2.ReadSharedReq_accesses::.cpu.data       313923                       # number of ReadSharedReq accesses(hits+misses)
system.l2.ReadSharedReq_accesses::total        313923                       # number of ReadSharedReq accesses(hits+misses)
system.l2.ReadSharedReq_hits::.cpu.data        308550                       # number of ReadSharedReq hits
system.l2.ReadSharedReq_hits::total            308550                       # number of ReadSharedReq hits
system.l2.ReadSharedReq_miss_rate::.cpu.data     0.017116                       # miss rate for ReadSharedReq accesses
system.l2.ReadSharedReq_miss_rate::total     0.017116                       # miss rate for ReadSharedReq accesses
system.l2.ReadSharedReq_misses::.cpu.data         5373                       # number of ReadSharedReq misses
system.l2.ReadSharedReq_misses::total            5373                       # number of ReadSharedReq misses
system.l2.WritebackClean_accesses::.writebacks        24506                       # number of WritebackClean accesses(hits+misses)
system.l2.WritebackClean_accesses::total        24506                       # number of WritebackClean accesses(hits+misses)
system.l2.WritebackClean_hits::.writebacks        24506                       # number of WritebackClean hits
system.l2.WritebackClean_hits::total            24506                       # number of WritebackClean hits
system.l2.WritebackDirty_accesses::.writebacks       666667                       # number of WritebackDirty accesses(hits+misses)
system.l2.WritebackDirty_accesses::total       666667                       # number of WritebackDirty accesses(hits+misses)
system.l2.WritebackDirty_hits::.writebacks       666667                       # number of WritebackDirty hits
system.l2.WritebackDirty_hits::total           666667                       # number of WritebackDirty hits
system.l2.avg_blocked_cycles::no_mshrs            nan                       # average number of cycles each access was blocked
system.l2.avg_blocked_cycles::no_targets          nan                       # average number of cycles each access was blocked
system.l2.blocked::no_mshrs                         0                       # number of cycles access was blocked
system.l2.blocked::no_targets                       0                       # number of cycles access was blocked
system.l2.blocked_cycles::no_mshrs                  0                       # number of cycles access was blocked
system.l2.blocked_cycles::no_targets                0                       # number of cycles access was blocked
system.l2.demand_accesses::.cpu.inst            25530                       # number of demand (read+write) accesses
system.l2.demand_accesses::.cpu.data           678022                       # number of demand (read+write) accesses
system.l2.demand_accesses::total               703552                       # number of demand (read+write) accesses
system.l2.demand_hits::.cpu.inst                19655                       # number of demand (read+write) hits
system.l2.demand_hits::.cpu.data               655952                       # number of demand (read+write) hits
system.l2.demand_hits::total                   675607                       # number of demand (read+write) hits
system.l2.demand_miss_rate::.cpu.inst        0.230121                       # miss rate for demand accesses
system.l2.demand_miss_rate::.cpu.data        0.032551                       # miss rate for demand accesses
system.l2.demand_miss_rate::total            0.039720                       # miss rate for demand accesses
system.l2.demand_misses::.cpu.inst               5875                       # number of demand (read+write) misses
system.l2.demand_misses::.cpu.data              22070                       # number of demand (read+write) misses
system.l2.demand_misses::total                  27945                       # number of demand (read+write) misses
system.l2.overall_accesses::.cpu.inst           25530                       # number of overall (read+write) accesses
system.l2.overall_accesses::.cpu.data          678022                       # number of overall (read+write) accesses
system.l2.overall_accesses::total              703552                       # number of overall (read+write) accesses
system.l2.overall_hits::.cpu.inst               19655                       # number of overall hits
system.l2.overall_hits::.cpu.data              655952                       # number of overall hits
system.l2.overall_hits::total                  675607                       # number of overall hits
system.l2.overall_miss_rate::.cpu.inst       0.230121                       # miss rate for overall accesses
system.l2.overall_miss_rate::.cpu.data       0.032551                       # miss rate for overall accesses
system.l2.overall_miss_rate::total           0.039720                       # miss rate for overall accesses
system.l2.overall_misses::.cpu.inst              5875                       # number of overall misses
system.l2.overall_misses::.cpu.data             22070                       # number of overall misses
system.l2.overall_misses::total                 27945                       # number of overall misses
system.l2.pwrStateResidencyTicks::UNDEFINED  84295259000                       # Cumulative time (in ticks) in various power states
system.l2.replacements                          13769                       # number of replacements
system.l2.tags.age_task_id_blocks_1024::0            2                       # Occupied blocks per task id
system.l2.tags.age_task_id_blocks_1024::1            1                       # Occupied blocks per task id
system.l2.tags.age_task_id_blocks_1024::2           41                       # Occupied blocks per task id
system.l2.tags.age_task_id_blocks_1024::3           37                       # Occupied blocks per task id
system.l2.tags.age_task_id_blocks_1024::4        18716                       # Occupied blocks per task id
system.l2.tags.avg_refs                     43.123657                       # Average number of references to valid blocks.
system.l2.tags.data_accesses                  1437622                       # Number of data accesses
system.l2.tags.occ_blocks::.writebacks     276.878479                       # Average occupied blocks per requestor
system.l2.tags.occ_blocks::.cpu.inst      2250.232796                       # Average occupied blocks per requestor
system.l2.tags.occ_blocks::.cpu.data     15704.757498                       # Average occupied blocks per requestor
system.l2.tags.occ_percent::.writebacks      0.008450                       # Average percentage of cache occupancy
system.l2.tags.occ_percent::.cpu.inst        0.068672                       # Average percentage of cache occupancy
system.l2.tags.occ_percent::.cpu.data        0.479271                       # Average percentage of cache occupancy
system.l2.tags.occ_percent::total            0.556392                       # Average percentage of cache occupancy
system.l2.tags.occ_task_id_blocks::1024         18797                       # Occupied blocks per task id
system.l2.tags.occ_task_id_percent::1024     0.573639                       # Percentage of cache occupancy per task id
system.l2.tags.pwrStateResidencyTicks::UNDEFINED  84295259000                       # Cumulative time (in ticks) in various power states
system.l2.tags.sampled_refs                     32566                       # Sample count of references to valid blocks.
system.l2.tags.tag_accesses                   1437622                       # Number of tag accesses
system.l2.tags.tagsinuse                 18231.868773                       # Cycle average of tags in use
system.l2.tags.total_refs                     1404365                       # Total number of references to valid blocks.
system.l2.tags.warmup_cycle                         0                       # Cycle when the warmup percentage was hit.
system.l2.writebacks::.writebacks                1763                       # number of writebacks
system.l2.writebacks::total                      1763                       # number of writebacks
system.mem_ctrls.avgBusLat                        nan                       # Average bus latency per DRAM burst
system.mem_ctrls.avgGap                           nan                       # Average gap between requests
system.mem_ctrls.avgMemAccLat                     nan                       # Average memory access latency per DRAM burst
system.mem_ctrls.avgQLat                          nan                       # Average queueing delay per DRAM burst
system.mem_ctrls.avgRdBW                         0.00                       # Average DRAM read bandwidth in MiByte/s
system.mem_ctrls.avgRdBWSys                      0.00                       # Average system read bandwidth in MiByte/s
system.mem_ctrls.avgRdQLen                       0.00                       # Average read queue length when enqueuing
system.mem_ctrls.avgWrBW                         0.00                       # Average achieved write bandwidth in MiByte/s
system.mem_ctrls.avgWrBWSys                      0.00                       # Average system write bandwidth in MiByte/s
system.mem_ctrls.avgWrQLen                       0.00                       # Average write queue length when enqueuing
system.mem_ctrls.busUtil                         0.00                       # Data bus utilization in percentage
system.mem_ctrls.busUtilRead                     0.00                       # Data bus utilization in percentage for reads
system.mem_ctrls.busUtilWrite                    0.00                       # Data bus utilization in percentage for writes
system.mem_ctrls.bw_inst_read::.cpu.inst      1115128                       # Instruction read bandwidth from this memory (bytes/s)
system.mem_ctrls.bw_inst_read::total          1115128                       # Instruction read bandwidth from this memory (bytes/s)
system.mem_ctrls.bw_read::.cpu.inst           1115128                       # Total read bandwidth from this memory (bytes/s)
system.mem_ctrls.bw_read::.cpu.data           4189085                       # Total read bandwidth from this memory (bytes/s)
system.mem_ctrls.bw_read::total               5304213                       # Total read bandwidth from this memory (bytes/s)
system.mem_ctrls.bw_total::.writebacks         334633                       # Total bandwidth to/from this memory (bytes/s)
system.mem_ctrls.bw_total::.cpu.inst          1115128                       # Total bandwidth to/from this memory (bytes/s)
system.mem_ctrls.bw_total::.cpu.data          4189085                       # Total bandwidth to/from this memory (bytes/s)
system.mem_ctrls.bw_total::total              5638846                       # Total bandwidth to/from this memory (bytes/s)
system.mem_ctrls.bw_write::.writebacks         334633                       # Write bandwidth from this memory (bytes/s)
system.mem_ctrls.bw_write::total               334633                       # Write bandwidth from this memory (bytes/s)
system.mem_ctrls.bytesReadDRAM                      0                       # Total number of bytes read from DRAM
system.mem_ctrls.bytesReadSys                       0                       # Total read bytes from the system interface side
system.mem_ctrls.bytesReadWrQ                       0                       # Total number of bytes read from write queue
system.mem_ctrls.bytesWritten                       0                       # Total number of bytes written to DRAM
system.mem_ctrls.bytesWrittenSys                    0                       # Total written bytes from the system interface side
system.mem_ctrls.bytes_inst_read::.cpu.inst        94000                       # Number of instructions bytes read from this memory
system.mem_ctrls.bytes_inst_read::total         94000                       # Number of instructions bytes read from this memory
system.mem_ctrls.bytes_read::.cpu.inst          94000                       # Number of bytes read from this memory
system.mem_ctrls.bytes_read::.cpu.data         353120                       # Number of bytes read from this memory
system.mem_ctrls.bytes_read::total             447120                       # Number of bytes read from this memory
system.mem_ctrls.bytes_written::.writebacks        28208                       # Number of bytes written to this memory
system.mem_ctrls.bytes_written::total           28208                       # Number of bytes written to this memory
system.mem_ctrls.mergedWrBursts                     0                       # Number of DRAM write bursts merged with an existing one
system.mem_ctrls.neitherReadNorWriteReqs            0                       # Number of requests that are neither read nor write
system.mem_ctrls.numRdRetry                         0                       # Number of times read queue was full causing retry
system.mem_ctrls.numReadWriteTurnArounds            0                       # Number of turnarounds from READ to WRITE
system.mem_ctrls.numStayReadState                   0                       # Number of times bus staying in READ state
system.mem_ctrls.numStayWriteState                  0                       # Number of times bus staying in WRITE state
system.mem_ctrls.numWrRetry                         0                       # Number of times write queue was full causing retry
system.mem_ctrls.numWriteReadTurnArounds            0                       # Number of turnarounds from WRITE to READ
system.mem_ctrls.num_reads::.cpu.inst            5875                       # Number of read requests responded to by this memory
system.mem_ctrls.num_reads::.cpu.data           22070                       # Number of read requests responded to by this memory
system.mem_ctrls.num_reads::total               27945                       # Number of read requests responded to by this memory
system.mem_ctrls.num_writes::.writebacks         1763                       # Number of write requests responded to by this memory
system.mem_ctrls.num_writes::total               1763                       # Number of write requests responded to by this memory
system.mem_ctrls.pageHitRate                      nan                       # Row buffer hit rate, read and write combined
system.mem_ctrls.peakBW                      12800.00                       # Theoretical peak bandwidth in MiByte/s
system.mem_ctrls.perBankRdBursts::0                 0                       # Per bank write bursts
system.mem_ctrls.perBankRdBursts::1                 0                       # Per bank write bursts
system.mem_ctrls.perBankRdBursts::2                 0                       # Per bank write bursts
system.mem_ctrls.perBankRdBursts::3                 0                       # Per bank write bursts
system.mem_ctrls.perBankRdBursts::4                 0                       # Per bank write bursts
system.mem_ctrls.perBankRdBursts::5                 0                       # Per bank write bursts
system.mem_ctrls.perBankRdBursts::6                 0                       # Per bank write bursts
system.mem_ctrls.perBankRdBursts::7                 0                       # Per bank write bursts
system.mem_ctrls.perBankRdBursts::8                 0                       # Per bank write bursts
system.mem_ctrls.perBankRdBursts::9                 0                       # Per bank write bursts
system.mem_ctrls.perBankRdBursts::10                0                       # Per bank write bursts
system.mem_ctrls.perBankRdBursts::11                0                       # Per bank write bursts
system.mem_ctrls.perBankRdBursts::12                0                       # Per bank write bursts
system.mem_ctrls.perBankRdBursts::13                0                       # Per bank write bursts
system.mem_ctrls.perBankRdBursts::14                0                       # Per bank write bursts
system.mem_ctrls.perBankRdBursts::15                0                       # Per bank write bursts
system.mem_ctrls.perBankWrBursts::0                 0                       # Per bank write bursts
system.mem_ctrls.perBankWrBursts::1                 0                       # Per bank write bursts
system.mem_ctrls.perBankWrBursts::2                 0                       # Per bank write bursts
system.mem_ctrls.perBankWrBursts::3                 0                       # Per bank write bursts
system.mem_ctrls.perBankWrBursts::4                 0                       # Per bank write bursts
system.mem_ctrls.perBankWrBursts::5                 0                       # Per bank write bursts
system.mem_ctrls.perBankWrBursts::6                 0                       # Per bank write bursts
system.mem_ctrls.perBankWrBursts::7                 0                       # Per bank write bursts
system.mem_ctrls.perBankWrBursts::8                 0                       # Per bank write bursts
system.mem_ctrls.perBankWrBursts::9                 0                       # Per bank write bursts
system.mem_ctrls.perBankWrBursts::10                0                       # Per bank write bursts
system.mem_ctrls.perBankWrBursts::11                0                       # Per bank write bursts
system.mem_ctrls.perBankWrBursts::12                0                       # Per bank write bursts
system.mem_ctrls.perBankWrBursts::13                0                       # Per bank write bursts
system.mem_ctrls.perBankWrBursts::14                0                       # Per bank write bursts
system.mem_ctrls.perBankWrBursts::15                0                       # Per bank write bursts
system.mem_ctrls.priorityMaxLatency      0.000000000000                       # per QoS priority maximum request to response latency (s)
system.mem_ctrls.priorityMinLatency      0.000000000000                       # per QoS priority minimum request to response latency (s)
system.mem_ctrls.pwrStateResidencyTicks::UNDEFINED  84295259000                       # Cumulative time (in ticks) in various power states
system.mem_ctrls.rdQLenPdf::0                       0                       # What read queue length does an incoming req see
system.mem_ctrls.rdQLenPdf::1                       0                       # What read queue length does an incoming req see
system.mem_ctrls.rdQLenPdf::2                       0                       # What read queue length does an incoming req see
system.mem_ctrls.rdQLenPdf::3                       0                       # What read queue length does an incoming req see
system.mem_ctrls.rdQLenPdf::4                       0                       # What read queue length does an incoming req see
system.mem_ctrls.rdQLenPdf::5                       0                       # What read queue length does an incoming req see
system.mem_ctrls.rdQLenPdf::6                       0                       # What read queue length does an incoming req see
system.mem_ctrls.rdQLenPdf::7                       0                       # What read queue length does an incoming req see
system.mem_ctrls.rdQLenPdf::8                       0                       # What read queue length does an incoming req see
system.mem_ctrls.rdQLenPdf::9                       0                       # What read queue length does an incoming req see
system.mem_ctrls.rdQLenPdf::10                      0                       # What read queue length does an incoming req see
system.mem_ctrls.rdQLenPdf::11                      0                       # What read queue length does an incoming req see
system.mem_ctrls.rdQLenPdf::12                      0                       # What read queue length does an incoming req see
system.mem_ctrls.rdQLenPdf::13                      0                       # What read queue length does an incoming req see
system.mem_ctrls.rdQLenPdf::14                      0                       # What read queue length does an incoming req see
system.mem_ctrls.rdQLenPdf::15                      0                       # What read queue length does an incoming req see
system.mem_ctrls.rdQLenPdf::16                      0                       # What read queue length does an incoming req see
system.mem_ctrls.rdQLenPdf::17                      0                       # What read queue length does an incoming req see
system.mem_ctrls.rdQLenPdf::18                      0                       # What read queue length does an incoming req see
system.mem_ctrls.rdQLenPdf::19                      0                       # What read queue length does an incoming req see
system.mem_ctrls.rdQLenPdf::20                      0                       # What read queue length does an incoming req see
system.mem_ctrls.rdQLenPdf::21                      0                       # What read queue length does an incoming req see
system.mem_ctrls.rdQLenPdf::22                      0                       # What read queue length does an incoming req see
system.mem_ctrls.rdQLenPdf::23                      0                       # What read queue length does an incoming req see
system.mem_ctrls.rdQLenPdf::24                      0                       # What read queue length does an incoming req see
system.mem_ctrls.rdQLenPdf::25                      0                       # What read queue length does an incoming req see
system.mem_ctrls.rdQLenPdf::26                      0                       # What read queue length does an incoming req see
system.mem_ctrls.rdQLenPdf::27                      0                       # What read queue length does an incoming req see
system.mem_ctrls.rdQLenPdf::28                      0                       # What read queue length does an incoming req see
system.mem_ctrls.rdQLenPdf::29                      0                       # What read queue length does an incoming req see
system.mem_ctrls.rdQLenPdf::30                      0                       # What read queue length does an incoming req see
system.mem_ctrls.rdQLenPdf::31                      0                       # What read queue length does an incoming req see
system.mem_ctrls.readBursts                         0                       # Number of DRAM read bursts, including those serviced by the write queue
system.mem_ctrls.readPktSize::0                     0                       # Read request sizes (log2)
system.mem_ctrls.readPktSize::1                     0                       # Read request sizes (log2)
system.mem_ctrls.readPktSize::2                     0                       # Read request sizes (log2)
system.mem_ctrls.readPktSize::3                     0                       # Read request sizes (log2)
system.mem_ctrls.readPktSize::4                     0                       # Read request sizes (log2)
system.mem_ctrls.readPktSize::5                     0                       # Read request sizes (log2)
system.mem_ctrls.readPktSize::6                     0                       # Read request sizes (log2)
system.mem_ctrls.readReqs                           0                       # Number of read requests accepted
system.mem_ctrls.readRowHitRate                   nan                       # Row buffer hit rate for reads
system.mem_ctrls.readRowHits                        0                       # Number of row buffer hits during reads
system.mem_ctrls.servicedByWrQ                      0                       # Number of DRAM read bursts serviced by the write queue
system.mem_ctrls.totBusLat                          0                       # Total ticks spent in databus transfers
system.mem_ctrls.totGap                             0                       # Total gap between requests
system.mem_ctrls.totMemAccLat                       0                       # Total ticks spent from burst creation until serviced by the DRAM
system.mem_ctrls.totQLat                            0                       # Total ticks spent queuing
system.mem_ctrls.wrQLenPdf::0                       0                       # What write queue length does an incoming req see
system.mem_ctrls.wrQLenPdf::1                       0                       # What write queue length does an incoming req see
system.mem_ctrls.wrQLenPdf::2                       0                       # What write queue length does an incoming req see
system.mem_ctrls.wrQLenPdf::3                       0                       # What write queue length does an incoming req see
system.mem_ctrls.wrQLenPdf::4                       0                       # What write queue length does an incoming req see
system.mem_ctrls.wrQLenPdf::5                       0                       # What write queue length does an incoming req see
system.mem_ctrls.wrQLenPdf::6                       0                       # What write queue length does an incoming req see
system.mem_ctrls.wrQLenPdf::7                       0                       # What write queue length does an incoming req see
system.mem_ctrls.wrQLenPdf::8                       0                       # What write queue length does an incoming req see
system.mem_ctrls.wrQLenPdf::9                       0                       # What write queue length does an incoming req see
system.mem_ctrls.wrQLenPdf::10                      0                       # What write queue length does an incoming req see
system.mem_ctrls.wrQLenPdf::11                      0                       # What write queue length does an incoming req see
system.mem_ctrls.wrQLenPdf::12                      0                       # What write queue length does an incoming req see
system.mem_ctrls.wrQLenPdf::13                      0                       # What write queue length does an incoming req see
system.mem_ctrls.wrQLenPdf::14                      0                       # What write queue length does an incoming req see
system.mem_ctrls.wrQLenPdf::15                      0                       # What write queue length does an incoming req see
system.mem_ctrls.wrQLenPdf::16                      0                       # What write queue length does an incoming req see
system.mem_ctrls.wrQLenPdf::17                      0                       # What write queue length does an incoming req see
system.mem_ctrls.wrQLenPdf::18                      0                       # What write queue length does an incoming req see
system.mem_ctrls.wrQLenPdf::19                      0                       # What write queue length does an incoming req see
system.mem_ctrls.wrQLenPdf::20                      0                       # What write queue length does an incoming req see
system.mem_ctrls.wrQLenPdf::21                      0                       # What write queue length does an incoming req see
system.mem_ctrls.wrQLenPdf::22                      0                       # What write queue length does an incoming req see
system.mem_ctrls.wrQLenPdf::23                      0                       # What write queue length does an incoming req see
system.mem_ctrls.wrQLenPdf::24                      0                       # What write queue length does an incoming req see
system.mem_ctrls.wrQLenPdf::25                      0                       # What write queue length does an incoming req see
system.mem_ctrls.wrQLenPdf::26                      0                       # What write queue length does an incoming req see
system.mem_ctrls.wrQLenPdf::27                      0                       # What write queue length does an incoming req see
system.mem_ctrls.wrQLenPdf::28                      0                       # What write queue length does an incoming req see
system.mem_ctrls.wrQLenPdf::29                      0                       # What write queue length does an incoming req see
system.mem_ctrls.wrQLenPdf::30                      0                       # What write queue length does an incoming req see
system.mem_ctrls.wrQLenPdf::31                      0                       # What write queue length does an incoming req see
system.mem_ctrls.wrQLenPdf::32                      0                       # What write queue length does an incoming req see
system.mem_ctrls.wrQLenPdf::33                      0                       # What write queue length does an incoming req see
system.mem_ctrls.wrQLenPdf::34                      0                       # What write queue length does an incoming req see
system.mem_ctrls.wrQLenPdf::35                      0                       # What write queue length does an incoming req see
system.mem_ctrls.wrQLenPdf::36                      0                       # What write queue length does an incoming req see
system.mem_ctrls.wrQLenPdf::37                      0                       # What write queue length does an incoming req see
system.mem_ctrls.wrQLenPdf::38                      0                       # What write queue length does an incoming req see
system.mem_ctrls.wrQLenPdf::39                      0                       # What write queue length does an incoming req see
system.mem_ctrls.wrQLenPdf::40                      0                       # What write queue length does an incoming req see
system.mem_ctrls.wrQLenPdf::41                      0                       # What write queue length does an incoming req see
system.mem_ctrls.wrQLenPdf::42                      0                       # What write queue length does an incoming req see
system.mem_ctrls.wrQLenPdf::43                      0                       # What write queue length does an incoming req see
system.mem_ctrls.wrQLenPdf::44                      0                       # What write queue length does an incoming req see
system.mem_ctrls.wrQLenPdf::45                      0                       # What write queue length does an incoming req see
system.mem_ctrls.wrQLenPdf::46                      0                       # What write queue length does an incoming req see
system.mem_ctrls.wrQLenPdf::47                      0                       # What write queue length does an incoming req see
system.mem_ctrls.wrQLenPdf::48                      0                       # What write queue length does an incoming req see
system.mem_ctrls.wrQLenPdf::49                      0                       # What write queue length does an incoming req see
system.mem_ctrls.wrQLenPdf::50                      0                       # What write queue length does an incoming req see
system.mem_ctrls.wrQLenPdf::51                      0                       # What write queue length does an incoming req see
system.mem_ctrls.wrQLenPdf::52                      0                       # What write queue length does an incoming req see
system.mem_ctrls.wrQLenPdf::53                      0                       # What write queue length does an incoming req see
system.mem_ctrls.wrQLenPdf::54                      0                       # What write queue length does an incoming req see
system.mem_ctrls.wrQLenPdf::55                      0                       # What write queue length does an incoming req see
system.mem_ctrls.wrQLenPdf::56                      0                       # What write queue length does an incoming req see
system.mem_ctrls.wrQLenPdf::57                      0                       # What write queue length does an incoming req see
system.mem_ctrls.wrQLenPdf::58                      0                       # What write queue length does an incoming req see
system.mem_ctrls.wrQLenPdf::59                      0                       # What write queue length does an incoming req see
system.mem_ctrls.wrQLenPdf::60                      0                       # What write queue length does an incoming req see
system.mem_ctrls.wrQLenPdf::61                      0                       # What write queue length does an incoming req see
system.mem_ctrls.wrQLenPdf::62                      0                       # What write queue length does an incoming req see
system.mem_ctrls.wrQLenPdf::63                      0                       # What write queue length does an incoming req see
system.mem_ctrls.writeBursts                        0                       # Number of DRAM write bursts, including those merged in the write queue
system.mem_ctrls.writePktSize::0                    0                       # Write request sizes (log2)
system.mem_ctrls.writePktSize::1                    0                       # Write request sizes (log2)
system.mem_ctrls.writePktSize::2                    0                       # Write request sizes (log2)
system.mem_ctrls.writePktSize::3                    0                       # Write request sizes (log2)
system.mem_ctrls.writePktSize::4                    0                       # Write request sizes (log2)
system.mem_ctrls.writePktSize::5                    0                       # Write request sizes (log2)
system.mem_ctrls.writePktSize::6                    0                       # Write request sizes (log2)
system.mem_ctrls.writeReqs                          0                       # Number of write requests accepted
system.mem_ctrls.writeRowHitRate                  nan                       # Row buffer hit rate for writes
system.mem_ctrls.writeRowHits                       0                       # Number of row buffer hits during writes
system.mem_ctrls_0.actBackEnergy                    0                       # Energy for active background per rank (pJ)
system.mem_ctrls_0.actEnergy                        0                       # Energy for activate commands per rank (pJ)
system.mem_ctrls_0.actPowerDownEnergy               0                       # Energy for active power-down per rank (pJ)
system.mem_ctrls_0.averagePower            384.000005                       # Core power per rank (mW)
system.mem_ctrls_0.memoryStateTime::IDLE  84295259000                       # Time in different power states
system.mem_ctrls_0.memoryStateTime::REF             0                       # Time in different power states
system.mem_ctrls_0.memoryStateTime::SREF            0                       # Time in different power states
system.mem_ctrls_0.memoryStateTime::PRE_PDN            0                       # Time in different power states
system.mem_ctrls_0.memoryStateTime::ACT             0                       # Time in different power states
system.mem_ctrls_0.memoryStateTime::ACT_PDN            0                       # Time in different power states
system.mem_ctrls_0.preBackEnergy          32369379840                       # Energy for precharge background per rank (pJ)
system.mem_ctrls_0.preEnergy                        0                       # Energy for precharge commands per rank (pJ)
system.mem_ctrls_0.prePowerDownEnergy               0                       # Energy for precharge power-down per rank (pJ)
system.mem_ctrls_0.readEnergy                       0                       # Energy for read commands per rank (pJ)
system.mem_ctrls_0.refreshEnergy                    0                       # Energy for refresh commands per rank (pJ)
system.mem_ctrls_0.selfRefreshEnergy                0                       # Energy for self refresh per rank (pJ)
system.mem_ctrls_0.totalEnergy            32369379840                       # Total energy per rank (pJ)
system.mem_ctrls_0.totalIdleTime                    0                       # Total Idle time Per DRAM Rank
system.mem_ctrls_0.writeEnergy                      0                       # Energy for write commands per rank (pJ)
system.mem_ctrls_1.actBackEnergy                    0                       # Energy for active background per rank (pJ)
system.mem_ctrls_1.actEnergy                        0                       # Energy for activate commands per rank (pJ)
system.mem_ctrls_1.actPowerDownEnergy               0                       # Energy for active power-down per rank (pJ)
system.mem_ctrls_1.averagePower            384.000005                       # Core power per rank (mW)
system.mem_ctrls_1.memoryStateTime::IDLE  84295259000                       # Time in different power states
system.mem_ctrls_1.memoryStateTime::REF             0                       # Time in different power states
system.mem_ctrls_1.memoryStateTime::SREF            0                       # Time in different power states
system.mem_ctrls_1.memoryStateTime::PRE_PDN            0                       # Time in different power states
system.mem_ctrls_1.memoryStateTime::ACT             0                       # Time in different power states
system.mem_ctrls_1.memoryStateTime::ACT_PDN            0                       # Time in different power states
system.mem_ctrls_1.preBackEnergy          32369379840                       # Energy for precharge background per rank (pJ)
system.mem_ctrls_1.preEnergy                        0                       # Energy for precharge commands per rank (pJ)
system.mem_ctrls_1.prePowerDownEnergy               0                       # Energy for precharge power-down per rank (pJ)
system.mem_ctrls_1.readEnergy                       0                       # Energy for read commands per rank (pJ)
system.mem_ctrls_1.refreshEnergy                    0                       # Energy for refresh commands per rank (pJ)
system.mem_ctrls_1.selfRefreshEnergy                0                       # Energy for self refresh per rank (pJ)
system.mem_ctrls_1.totalEnergy            32369379840                       # Total energy per rank (pJ)
system.mem_ctrls_1.totalIdleTime                    0                       # Total Idle time Per DRAM Rank
system.mem_ctrls_1.writeEnergy                      0                       # Energy for write commands per rank (pJ)
system.membus.pkt_count_system.l2.mem_side::system.mem_ctrls.port        64397                       # Packet count per connected master and slave (bytes)
system.membus.pkt_count_system.l2.mem_side::total        64397                       # Packet count per connected master and slave (bytes)
system.membus.pkt_count::total                  64397                       # Packet count per connected master and slave (bytes)
system.membus.pkt_size_system.l2.mem_side::system.mem_ctrls.port       475328                       # Cumulative packet size per connected master and slave (bytes)
system.membus.pkt_size_system.l2.mem_side::total       475328                       # Cumulative packet size per connected master and slave (bytes)
system.membus.pkt_size::total                  475328                       # Cumulative packet size per connected master and slave (bytes)
system.membus.pwrStateResidencyTicks::UNDEFINED  84295259000                       # Cumulative time (in ticks) in various power states
system.membus.snoopTraffic                          0                       # Total snoop traffic (bytes)
system.membus.snoop_fanout::samples             27945                       # Request fanout histogram
system.membus.snoop_fanout::mean                    0                       # Request fanout histogram
system.membus.snoop_fanout::stdev                   0                       # Request fanout histogram
system.membus.snoop_fanout::underflows              0      0.00%      0.00% # Request fanout histogram
system.membus.snoop_fanout::0                   27945    100.00%    100.00% # Request fanout histogram
system.membus.snoop_fanout::1                       0      0.00%    100.00% # Request fanout histogram
system.membus.snoop_fanout::overflows               0      0.00%    100.00% # Request fanout histogram
system.membus.snoop_fanout::min_value               0                       # Request fanout histogram
system.membus.snoop_fanout::max_value               0                       # Request fanout histogram
system.membus.snoop_fanout::total               27945                       # Request fanout histogram
system.membus.snoop_filter.hit_multi_requests            0                       # Number of requests hitting in the snoop filter with multiple (>1) holders of the requested data.
system.membus.snoop_filter.hit_multi_snoops            0                       # Number of snoops hitting in the snoop filter with multiple (>1) holders of the requested data.
system.membus.snoop_filter.hit_single_requests         8507                       # Number of requests hitting in the snoop filter with a single holder of the requested data.
system.membus.snoop_filter.hit_single_snoops            0                       # Number of snoops hitting in the snoop filter with a single holder of the requested data.
system.membus.snoop_filter.tot_requests         36452                       # Total number of requests made to the snoop filter.
system.membus.snoop_filter.tot_snoops               0                       # Total number of snoops made to the snoop filter.
system.membus.snoops                                0                       # Total snoops (count)
system.membus.trans_dist::ReadResp              11248                       # Transaction distribution
system.membus.trans_dist::WritebackDirty         1763                       # Transaction distribution
system.membus.trans_dist::CleanEvict             6744                       # Transaction distribution
system.membus.trans_dist::ReadExReq             16697                       # Transaction distribution
system.membus.trans_dist::ReadExResp            16697                       # Transaction distribution
system.membus.trans_dist::ReadSharedReq         11248                       # Transaction distribution
system.pwrStateResidencyTicks::UNDEFINED  84295259000                       # Cumulative time (in ticks) in various power states
system.tol2bus.pkt_count_system.cpu.icache.mem_side::system.l2.cpu_side        75566                       # Packet count per connected master and slave (bytes)
system.tol2bus.pkt_count_system.cpu.dcache.mem_side::system.l2.cpu_side      2033042                       # Packet count per connected master and slave (bytes)
system.tol2bus.pkt_count::total               2108608                       # Packet count per connected master and slave (bytes)
system.tol2bus.pkt_size_system.cpu.icache.mem_side::system.l2.cpu_side       800576                       # Cumulative packet size per connected master and slave (bytes)
system.tol2bus.pkt_size_system.cpu.dcache.mem_side::system.l2.cpu_side     21515024                       # Cumulative packet size per connected master and slave (bytes)
system.tol2bus.pkt_size::total               22315600                       # Cumulative packet size per connected master and slave (bytes)
system.tol2bus.pwrStateResidencyTicks::UNDEFINED  84295259000                       # Cumulative time (in ticks) in various power states
system.tol2bus.snoopTraffic                     28208                       # Total snoop traffic (bytes)
system.tol2bus.snoop_fanout::samples           717321                       # Request fanout histogram
system.tol2bus.snoop_fanout::mean            0.008299                       # Request fanout histogram
system.tol2bus.snoop_fanout::stdev           0.090720                       # Request fanout histogram
system.tol2bus.snoop_fanout::underflows             0      0.00%      0.00% # Request fanout histogram
system.tol2bus.snoop_fanout::0                 711368     99.17%     99.17% # Request fanout histogram
system.tol2bus.snoop_fanout::1                   5953      0.83%    100.00% # Request fanout histogram
system.tol2bus.snoop_fanout::2                      0      0.00%    100.00% # Request fanout histogram
system.tol2bus.snoop_fanout::3                      0      0.00%    100.00% # Request fanout histogram
system.tol2bus.snoop_fanout::4                      0      0.00%    100.00% # Request fanout histogram
system.tol2bus.snoop_fanout::overflows              0      0.00%    100.00% # Request fanout histogram
system.tol2bus.snoop_fanout::min_value              0                       # Request fanout histogram
system.tol2bus.snoop_fanout::max_value              1                       # Request fanout histogram
system.tol2bus.snoop_fanout::total             717321                       # Request fanout histogram
system.tol2bus.snoop_filter.hit_multi_requests            0                       # Number of requests hitting in the snoop filter with multiple (>1) holders of the requested data.
system.tol2bus.snoop_filter.hit_multi_snoops            0                       # Number of snoops hitting in the snoop filter with multiple (>1) holders of the requested data.
system.tol2bus.snoop_filter.hit_single_requests       701504                       # Number of requests hitting in the snoop filter with a single holder of the requested data.
system.tol2bus.snoop_filter.hit_single_snoops         5953                       # Number of snoops hitting in the snoop filter with a single holder of the requested data.
system.tol2bus.snoop_filter.tot_requests      1405056                       # Total number of requests made to the snoop filter.
system.tol2bus.snoop_filter.tot_snoops           5953                       # Total number of snoops made to the snoop filter.
system.tol2bus.snoops                           13769                       # Total snoops (count)
system.tol2bus.trans_dist::ReadResp            339453                       # Transaction distribution
system.tol2bus.trans_dist::WritebackDirty       666667                       # Transaction distribution
system.tol2bus.trans_dist::WritebackClean        24506                       # Transaction distribution
system.tol2bus.trans_dist::CleanEvict           10331                       # Transaction distribution
system.tol2bus.trans_dist::ReadExReq           364099                       # Transaction distribution
system.tol2bus.trans_dist::ReadExResp          364099                       # Transaction distribution
system.tol2bus.trans_dist::ReadCleanReq         25530                       # Transaction distribution
system.tol2bus.trans_dist::ReadSharedReq       313923                       # Transaction distribution
system.voltage_domain.voltage                       1                       # Voltage in Volts

---------- End Simulation Statistics   ----------
